2016-04-04 10:49:56,571  INFO Gbl:57 JVM: 1.8.0_73; Oracle Corporation; mixed mode; 64-bit
2016-04-04 10:49:56,573  INFO Gbl:61 OS: Windows 7; 6.1; amd64
2016-04-04 10:49:56,573  INFO Gbl:64 CPU cores: 4
2016-04-04 10:49:56,574  INFO Gbl:65 max. Memory: 3628.5MB (3804758016B)
2016-04-04 10:49:56,574  INFO Gbl:103 MATSim-Build: r92988ce59136ee2aff1ef13a5c44ef6b9ed94573 (2015-10-29 09:45:01)
2016-04-04 10:49:56,574  INFO AbstractController:102 Used Controler-Class: org.matsim.core.controler.Controler
2016-04-04 10:49:56,612  INFO MatsimXmlParser:145 starting to parse xml from file examples/tutorial/config/externalReplanning.xml ...
2016-04-04 10:49:56,627  INFO MatsimConfigReader:106 using config_v1-reader.
2016-04-04 10:49:56,627  INFO MatsimXmlParser:253 Trying to load http://www.matsim.org/files/dtd/config_v1.dtd. In some cases (e.g. network interface up but no connection), this may take a bit.
2016-04-04 10:49:56,985  WARN PlanCalcScoreConfigGroup$ActivityParams:645 Setting minimalDuration different from zero is discouraged.  It is probably implemented correctly, but there is as of now no indication that it makes the results more realistic.  KN, Sep'08 This message given only once.
2016-04-04 10:49:57,011  INFO ScenarioLoaderImpl:136 loading scenario from base directory: C:\matsim-0.7.0\
2016-04-04 10:49:57,011  INFO ScenarioLoaderImpl:171 loading network from ./examples/equil/network.xml
2016-04-04 10:49:57,012  INFO MatsimXmlParser:145 starting to parse xml from file ./examples/equil/network.xml ...
2016-04-04 10:49:57,013  INFO MatsimNetworkReader:83 using network_v1-reader.
2016-04-04 10:49:57,013  INFO MatsimXmlParser:253 Trying to load http://www.matsim.org/files/dtd/network_v1.dtd. In some cases (e.g. network interface up but no connection), this may take a bit.
2016-04-04 10:49:57,161  INFO NetworkImpl:128  node # 1
2016-04-04 10:49:57,162  INFO NetworkImpl:128  node # 2
2016-04-04 10:49:57,162  INFO NetworkImpl:128  node # 4
2016-04-04 10:49:57,163  INFO NetworkImpl:128  node # 8
2016-04-04 10:49:57,164  INFO NetworkImpl:124  link # 1
2016-04-04 10:49:57,165  INFO NetworkImpl:124  link # 2
2016-04-04 10:49:57,165  INFO NetworkImpl:124  link # 4
2016-04-04 10:49:57,166  INFO NetworkImpl:124  link # 8
2016-04-04 10:49:57,167  INFO NetworkImpl:124  link # 16
2016-04-04 10:49:57,167  INFO ScenarioLoaderImpl:201 no facilities file set in config, therefore not loading any facilities.  This is not a problem except if you are using facilities
2016-04-04 10:49:57,168  INFO ScenarioLoaderImpl:209 no facility-attributes file set in config, not loading any facility attributes
2016-04-04 10:49:57,168  INFO ScenarioLoaderImpl:222 loading population from ./examples/equil/plans100.xml
2016-04-04 10:49:57,170  INFO MatsimXmlParser:145 starting to parse xml from file ./examples/equil/plans100.xml ...
2016-04-04 10:49:57,173  INFO MatsimPopulationReader:83 using plans_v4-reader.
2016-04-04 10:49:57,173  INFO MatsimXmlParser:253 Trying to load http://www.matsim.org/files/dtd/plans_v4.dtd. In some cases (e.g. network interface up but no connection), this may take a bit.
2016-04-04 10:49:57,324  INFO ParallelPopulationReaderMatsimV4:121 Start parallel population reading...
2016-04-04 10:49:57,331  INFO PopulationImpl:173  person # 1
2016-04-04 10:49:57,335  INFO PopulationImpl:173  person # 2
2016-04-04 10:49:57,338  INFO PopulationImpl:173  person # 4
2016-04-04 10:49:57,342  INFO PopulationImpl:173  person # 8
2016-04-04 10:49:57,346  INFO PopulationImpl:173  person # 16
2016-04-04 10:49:57,356  INFO PopulationImpl:173  person # 32
2016-04-04 10:49:57,371  INFO PopulationImpl:173  person # 64
2016-04-04 10:49:57,377  INFO ParallelPopulationReaderMatsimV4:171 Finished parallel population reading...
2016-04-04 10:49:57,377  INFO PopulationImpl:173  person # 100
2016-04-04 10:49:57,377  INFO ScenarioLoaderImpl:238 no person-attributes file set in config, not loading any person attributes
2016-04-04 10:49:57,610  INFO Injector:80 org.matsim.core.controler.corelisteners.PlansScoring
2016-04-04 10:49:57,611  INFO Injector:82    -> FactoryProxy{key=Key[type=org.matsim.core.controler.corelisteners.PlansScoring, annotation=[none]], provider=com.google.inject.internal.ConstructorBindingImpl$Factory@1f59a598[Scopes.SINGLETON]}
2016-04-04 10:49:57,611  INFO Injector:80 org.matsim.core.controler.corelisteners.PlansReplanning
2016-04-04 10:49:57,611  INFO Injector:82    -> FactoryProxy{key=Key[type=org.matsim.core.controler.corelisteners.PlansReplanning, annotation=[none]], provider=com.google.inject.internal.ConstructorBindingImpl$Factory@26b3fd41[Scopes.SINGLETON]}
2016-04-04 10:49:57,611  INFO Injector:80 org.matsim.core.controler.corelisteners.PlansDumping
2016-04-04 10:49:57,612  INFO Injector:82    -> FactoryProxy{key=Key[type=org.matsim.core.controler.corelisteners.PlansDumping, annotation=[none]], provider=com.google.inject.internal.ConstructorBindingImpl$Factory@2e377400[Scopes.SINGLETON]}
2016-04-04 10:49:57,612  INFO Injector:80 org.matsim.core.controler.corelisteners.EventsHandling
2016-04-04 10:49:57,612  INFO Injector:82    -> FactoryProxy{key=Key[type=org.matsim.core.controler.corelisteners.EventsHandling, annotation=[none]], provider=com.google.inject.internal.ConstructorBindingImpl$Factory@49e5f737[Scopes.SINGLETON]}
2016-04-04 10:49:57,612  INFO Injector:80 org.matsim.core.controler.corelisteners.DumpDataAtEnd
2016-04-04 10:49:57,612  INFO Injector:82    -> FactoryProxy{key=Key[type=org.matsim.core.controler.corelisteners.DumpDataAtEnd, annotation=[none]], provider=com.google.inject.internal.ConstructorBindingImpl$Factory@687e99d8[Scopes.SINGLETON]}
2016-04-04 10:49:57,612  INFO Injector:80 org.matsim.core.mobsim.framework.Mobsim
2016-04-04 10:49:57,612  INFO Injector:82    -> Key[type=org.matsim.core.mobsim.qsim.QSimProvider, annotation=[none]]
2016-04-04 10:49:57,612  INFO Injector:80 org.matsim.api.core.v01.network.Network
2016-04-04 10:49:57,612  INFO Injector:82    -> Key[type=org.matsim.core.scenario.ScenarioElementsModule$NetworkProvider, annotation=[none]]
2016-04-04 10:49:57,613  INFO Injector:80 org.matsim.api.core.v01.population.Population
2016-04-04 10:49:57,613  INFO Injector:82    -> Key[type=org.matsim.core.scenario.ScenarioElementsModule$PopulationProvider, annotation=[none]]
2016-04-04 10:49:57,613  INFO Injector:80 org.matsim.core.trafficmonitoring.TravelTimeCalculator
2016-04-04 10:49:57,613  INFO Injector:82    -> Key[type=org.matsim.core.trafficmonitoring.TravelTimeCalculatorModule$TravelTimeCalculatorProvider, annotation=[none]][Scopes.SINGLETON]
2016-04-04 10:49:57,613  INFO Injector:80 org.matsim.core.events.handler.EventHandler
2016-04-04 10:49:57,613  INFO Injector:82    -> FactoryProxy{key=Key[type=org.matsim.core.events.handler.EventHandler, annotation=@com.google.inject.multibindings.Element(setName=,uniqueId=2, type=MULTIBINDER, keyType=)], provider=Key[type=org.matsim.core.trafficmonitoring.TravelTimeCalculatorModule$TravelTimeCalculatorProvider, annotation=[none]][Scopes.SINGLETON]}
2016-04-04 10:49:57,613  INFO Injector:80 org.matsim.core.router.util.TravelTime
2016-04-04 10:49:57,613  INFO Injector:82    -> Key[type=org.matsim.core.trafficmonitoring.TravelTimeCalculatorModule$TravelTimeProvider, annotation=[none]]
2016-04-04 10:49:57,613  INFO Injector:80 org.matsim.core.router.util.LinkToLinkTravelTime
2016-04-04 10:49:57,613  INFO Injector:82    -> Key[type=org.matsim.core.trafficmonitoring.TravelTimeCalculatorModule$LinkToLinkTravelTimeProvider, annotation=[none]]
2016-04-04 10:49:57,613  INFO Injector:80 org.matsim.core.router.costcalculators.TravelDisutilityFactory
2016-04-04 10:49:57,613  INFO Injector:82    -> FactoryProxy{key=Key[type=org.matsim.core.router.costcalculators.TravelDisutilityFactory, annotation=[none]], provider=com.google.inject.internal.ConstructorBindingImpl$Factory@6f45df59}
2016-04-04 10:49:57,614  INFO Injector:80 org.matsim.core.scoring.ScoringFunctionFactory
2016-04-04 10:49:57,614  INFO Injector:82    -> org.matsim.core.scoring.functions.CharyparNagelScoringFunctionModule$1@68e5eea7
2016-04-04 10:49:57,614  INFO Injector:80 org.matsim.core.router.util.LeastCostPathCalculatorFactory
2016-04-04 10:49:57,614  INFO Injector:82    -> FactoryProxy{key=Key[type=org.matsim.core.router.util.LeastCostPathCalculatorFactory, annotation=[none]], provider=com.google.inject.internal.ConstructorBindingImpl$Factory@762ef0ea[Scopes.SINGLETON]}
2016-04-04 10:49:57,614  INFO Injector:80 org.matsim.pt.router.TransitRouter
2016-04-04 10:49:57,614  INFO Injector:82    -> Key[type=org.matsim.pt.router.TransitRouterModule$DummyTransitRouterFactory, annotation=[none]]
2016-04-04 10:49:57,614  INFO Injector:80 org.matsim.core.router.TripRouterFactory
2016-04-04 10:49:57,614  INFO Injector:82    -> FactoryProxy{key=Key[type=org.matsim.core.router.TripRouterFactory, annotation=[none]], provider=com.google.inject.internal.ConstructorBindingImpl$Factory@6db9f5a4}[Scopes.SINGLETON]
2016-04-04 10:49:57,614  INFO Injector:80 org.matsim.core.router.TripRouter
2016-04-04 10:49:57,614  INFO Injector:82    -> Key[type=org.matsim.core.router.TripRouterModule$RealTripRouterProvider, annotation=[none]]
2016-04-04 10:49:57,614  INFO Injector:80 org.matsim.core.replanning.selectors.GenericPlanSelector<org.matsim.api.core.v01.population.Plan, org.matsim.api.core.v01.population.Person>
2016-04-04 10:49:57,615  INFO Injector:82    -> FactoryProxy{key=Key[type=org.matsim.core.replanning.selectors.GenericPlanSelector<org.matsim.api.core.v01.population.Plan, org.matsim.api.core.v01.population.Person>, annotation=@com.google.inject.multibindings.Element(setName=,uniqueId=3, type=MAPBINDER, keyType=java.lang.String)], provider=com.google.inject.internal.ConstructorBindingImpl$Factory@15ca7889}
2016-04-04 10:49:57,615  INFO Injector:80 org.matsim.core.replanning.selectors.GenericPlanSelector<org.matsim.api.core.v01.population.Plan, org.matsim.api.core.v01.population.Person>
2016-04-04 10:49:57,615  INFO Injector:82    -> FactoryProxy{key=Key[type=org.matsim.core.replanning.selectors.GenericPlanSelector<org.matsim.api.core.v01.population.Plan, org.matsim.api.core.v01.population.Person>, annotation=@com.google.inject.multibindings.Element(setName=,uniqueId=5, type=MAPBINDER, keyType=java.lang.String)], provider=com.google.inject.internal.ConstructorBindingImpl$Factory@6e509ffa}
2016-04-04 10:49:57,615  INFO Injector:80 org.matsim.core.replanning.selectors.GenericPlanSelector<org.matsim.api.core.v01.population.Plan, org.matsim.api.core.v01.population.Person>
2016-04-04 10:49:57,615  INFO Injector:82    -> Key[type=org.matsim.core.replanning.DefaultPlanStrategiesModule$ExpBetaPlanSelectorForRemoval, annotation=[none]]
2016-04-04 10:49:57,615  INFO Injector:80 org.matsim.core.replanning.selectors.GenericPlanSelector<org.matsim.api.core.v01.population.Plan, org.matsim.api.core.v01.population.Person>
2016-04-04 10:49:57,615  INFO Injector:82    -> Key[type=org.matsim.core.replanning.DefaultPlanStrategiesModule$ExpBetaPlanChangerForRemoval, annotation=[none]]
2016-04-04 10:49:57,615  INFO Injector:80 org.matsim.core.replanning.selectors.GenericPlanSelector<org.matsim.api.core.v01.population.Plan, org.matsim.api.core.v01.population.Person>
2016-04-04 10:49:57,615  INFO Injector:82    -> Key[type=org.matsim.core.replanning.DefaultPlanStrategiesModule$PathSizeLogitSelectorForRemoval, annotation=[none]]
2016-04-04 10:49:57,615  INFO Injector:80 org.matsim.core.replanning.PlanStrategy
2016-04-04 10:49:57,615  INFO Injector:82    -> Key[type=org.matsim.core.replanning.modules.KeepLastSelectedPlanStrategyFactory, annotation=[none]]
2016-04-04 10:49:57,615  INFO Injector:80 org.matsim.core.replanning.PlanStrategy
2016-04-04 10:49:57,616  INFO Injector:82    -> Key[type=org.matsim.core.replanning.modules.SelectBestPlanStrategyFactory, annotation=[none]]
2016-04-04 10:49:57,616  INFO Injector:80 org.matsim.core.replanning.PlanStrategy
2016-04-04 10:49:57,616  INFO Injector:82    -> Key[type=org.matsim.core.replanning.modules.SelectExpBetaPlanStrategyFactory, annotation=[none]]
2016-04-04 10:49:57,616  INFO Injector:80 org.matsim.core.replanning.PlanStrategy
2016-04-04 10:49:57,616  INFO Injector:82    -> Key[type=org.matsim.core.replanning.modules.ChangeExpBetaPlanStrategyFactory, annotation=[none]]
2016-04-04 10:49:57,616  INFO Injector:80 org.matsim.core.replanning.PlanStrategy
2016-04-04 10:49:57,616  INFO Injector:82    -> Key[type=org.matsim.core.replanning.modules.SelectRandomStrategyFactory, annotation=[none]]
2016-04-04 10:49:57,616  INFO Injector:80 org.matsim.core.replanning.PlanStrategy
2016-04-04 10:49:57,616  INFO Injector:82    -> Key[type=org.matsim.core.replanning.modules.SelectPathSizeLogitStrategyFactory, annotation=[none]]
2016-04-04 10:49:57,616  INFO Injector:80 org.matsim.core.replanning.PlanStrategy
2016-04-04 10:49:57,616  INFO Injector:82    -> Key[type=org.matsim.core.replanning.modules.ReRoutePlanStrategyFactory, annotation=[none]]
2016-04-04 10:49:57,616  INFO Injector:80 org.matsim.core.replanning.PlanStrategy
2016-04-04 10:49:57,616  INFO Injector:82    -> Key[type=org.matsim.core.replanning.modules.TimeAllocationMutatorPlanStrategyFactory, annotation=[none]]
2016-04-04 10:49:57,616  INFO Injector:80 org.matsim.core.replanning.PlanStrategy
2016-04-04 10:49:57,617  INFO Injector:82    -> Key[type=org.matsim.core.replanning.modules.TimeAllocationMutatorReRoutePlanStrategyFactory, annotation=[none]]
2016-04-04 10:49:57,617  INFO Injector:80 org.matsim.core.replanning.PlanStrategy
2016-04-04 10:49:57,617  INFO Injector:82    -> Key[type=org.matsim.core.replanning.modules.ChangeSingleLegModeStrategyFactory, annotation=[none]]
2016-04-04 10:49:57,617  INFO Injector:80 org.matsim.core.replanning.PlanStrategy
2016-04-04 10:49:57,617  INFO Injector:82    -> Key[type=org.matsim.core.replanning.modules.ChangeLegModeStrategyFactory, annotation=[none]]
2016-04-04 10:49:57,617  INFO Injector:80 org.matsim.core.replanning.PlanStrategy
2016-04-04 10:49:57,617  INFO Injector:82    -> Key[type=org.matsim.core.replanning.modules.SubtourModeChoiceStrategyFactory, annotation=[none]]
2016-04-04 10:49:57,617  INFO Injector:80 org.matsim.core.replanning.PlanStrategy
2016-04-04 10:49:57,617  INFO Injector:82    -> Key[type=org.matsim.core.replanning.modules.ChangeTripModeStrategyFactory, annotation=[none]]
2016-04-04 10:49:57,617  INFO Injector:80 org.matsim.core.replanning.PlanStrategy
2016-04-04 10:49:57,617  INFO Injector:82    -> Key[type=org.matsim.core.replanning.modules.ChangeSingleTripModeStrategyFactory, annotation=[none]]
2016-04-04 10:49:57,617  INFO Injector:80 org.matsim.core.replanning.PlanStrategy
2016-04-04 10:49:57,617  INFO Injector:82    -> Key[type=org.matsim.core.replanning.modules.TripSubtourModeChoiceStrategyFactory, annotation=[none]]
2016-04-04 10:49:57,618  INFO Injector:80 org.matsim.core.replanning.StrategyManager
2016-04-04 10:49:57,618  INFO Injector:82    -> Key[type=org.matsim.core.replanning.StrategyManagerModule$StrategyManagerProvider, annotation=[none]][Scopes.SINGLETON]
2016-04-04 10:49:57,618  INFO Injector:80 org.matsim.core.replanning.ReplanningContext
2016-04-04 10:49:57,618  INFO Injector:82    -> FactoryProxy{key=Key[type=org.matsim.core.replanning.ReplanningContext, annotation=[none]], provider=com.google.inject.internal.ConstructorBindingImpl$Factory@55740540}
2016-04-04 10:49:57,618  INFO Injector:80 org.matsim.analysis.CalcLinkStats
2016-04-04 10:49:57,619  INFO Injector:82    -> Key[type=org.matsim.core.controler.corelisteners.LinkStatsModule$CalcLinkStatsProvider, annotation=[none]][Scopes.SINGLETON]
2016-04-04 10:49:57,619  INFO Injector:80 org.matsim.core.controler.listener.ControlerListener
2016-04-04 10:49:57,619  INFO Injector:82    -> FactoryProxy{key=Key[type=org.matsim.core.controler.listener.ControlerListener, annotation=@com.google.inject.multibindings.Element(setName=,uniqueId=43, type=MULTIBINDER, keyType=)], provider=com.google.inject.internal.ConstructorBindingImpl$Factory@f2ff811}
2016-04-04 10:49:57,619  INFO Injector:80 org.matsim.analysis.VolumesAnalyzer
2016-04-04 10:49:57,619  INFO Injector:82    -> Key[type=org.matsim.analysis.VolumesAnalyzerModule$VolumesAnalyzerProvider, annotation=[none]][Scopes.SINGLETON]
2016-04-04 10:49:57,619  INFO Injector:80 org.matsim.core.events.handler.EventHandler
2016-04-04 10:49:57,619  INFO Injector:82    -> FactoryProxy{key=Key[type=org.matsim.core.events.handler.EventHandler, annotation=@com.google.inject.multibindings.Element(setName=,uniqueId=44, type=MULTIBINDER, keyType=)], provider=Key[type=org.matsim.analysis.VolumesAnalyzerModule$VolumesAnalyzerProvider, annotation=[none]][Scopes.SINGLETON]}
2016-04-04 10:49:57,619  INFO Injector:80 org.matsim.core.events.handler.EventHandler
2016-04-04 10:49:57,620  INFO Injector:82    -> of(org.matsim.analysis.LegHistogram@4009e306)
2016-04-04 10:49:57,620  INFO Injector:80 org.matsim.analysis.LegHistogram
2016-04-04 10:49:57,620  INFO Injector:82    -> of(org.matsim.analysis.LegHistogram@4009e306)
2016-04-04 10:49:57,620  INFO Injector:80 org.matsim.core.controler.listener.ControlerListener
2016-04-04 10:49:57,620  INFO Injector:82    -> FactoryProxy{key=Key[type=org.matsim.core.controler.listener.ControlerListener, annotation=@com.google.inject.multibindings.Element(setName=,uniqueId=46, type=MULTIBINDER, keyType=)], provider=com.google.inject.internal.ConstructorBindingImpl$Factory@574b560f}
2016-04-04 10:49:57,620  INFO Injector:80 org.matsim.core.events.handler.EventHandler
2016-04-04 10:49:57,620  INFO Injector:82    -> FactoryProxy{key=Key[type=org.matsim.core.events.handler.EventHandler, annotation=@com.google.inject.multibindings.Element(setName=,uniqueId=47, type=MULTIBINDER, keyType=)], provider=com.google.inject.internal.ConstructorBindingImpl$Factory@3943a2be[Scopes.SINGLETON]}
2016-04-04 10:49:57,620  INFO Injector:80 org.matsim.core.controler.listener.ControlerListener
2016-04-04 10:49:57,620  INFO Injector:82    -> FactoryProxy{key=Key[type=org.matsim.core.controler.listener.ControlerListener, annotation=@com.google.inject.multibindings.Element(setName=,uniqueId=48, type=MULTIBINDER, keyType=)], provider=com.google.inject.internal.ConstructorBindingImpl$Factory@71c3b41}
2016-04-04 10:49:57,620  INFO Injector:80 org.matsim.core.controler.listener.ControlerListener
2016-04-04 10:49:57,620  INFO Injector:82    -> FactoryProxy{key=Key[type=org.matsim.core.controler.listener.ControlerListener, annotation=@com.google.inject.multibindings.Element(setName=,uniqueId=49, type=MULTIBINDER, keyType=)], provider=com.google.inject.internal.ConstructorBindingImpl$Factory@6bf0219d[Scopes.SINGLETON]}
2016-04-04 10:49:57,621  INFO Injector:80 org.matsim.analysis.ScoreStats
2016-04-04 10:49:57,621  INFO Injector:82    -> FactoryProxy{key=Key[type=org.matsim.analysis.ScoreStats, annotation=[none]], provider=com.google.inject.internal.ConstructorBindingImpl$Factory@6bf0219d[Scopes.SINGLETON]}
2016-04-04 10:49:57,621  INFO Injector:80 org.matsim.core.controler.listener.ControlerListener
2016-04-04 10:49:57,621  INFO Injector:82    -> FactoryProxy{key=Key[type=org.matsim.core.controler.listener.ControlerListener, annotation=@com.google.inject.multibindings.Element(setName=,uniqueId=50, type=MULTIBINDER, keyType=)], provider=com.google.inject.internal.ConstructorBindingImpl$Factory@87a85e1}
2016-04-04 10:49:57,621  INFO Injector:80 org.matsim.core.controler.listener.ControlerListener
2016-04-04 10:49:57,621  INFO Injector:82    -> FactoryProxy{key=Key[type=org.matsim.core.controler.listener.ControlerListener, annotation=@com.google.inject.multibindings.Element(setName=,uniqueId=51, type=MULTIBINDER, keyType=)], provider=com.google.inject.internal.ConstructorBindingImpl$Factory@3c947bc5}
2016-04-04 10:49:57,621  INFO Injector:80 org.matsim.core.controler.OutputDirectoryHierarchy
2016-04-04 10:49:57,621  INFO Injector:82    -> of(org.matsim.core.controler.OutputDirectoryHierarchy@1356d4d4)
2016-04-04 10:49:57,621  INFO Injector:80 org.matsim.analysis.IterationStopWatch
2016-04-04 10:49:57,621  INFO Injector:82    -> of(org.matsim.analysis.IterationStopWatch@6497b078)
2016-04-04 10:49:57,621  INFO Injector:80 org.matsim.api.core.v01.Scenario
2016-04-04 10:49:57,622  INFO Injector:82    -> of(org.matsim.core.scenario.ScenarioImpl@46fa7c39)
2016-04-04 10:49:57,622  INFO Injector:80 org.matsim.core.api.experimental.events.EventsManager
2016-04-04 10:49:57,622  INFO Injector:82    -> of(org.matsim.core.events.SimStepParallelEventsManagerImpl@4a668b6e)
2016-04-04 10:49:57,622  INFO Injector:80 org.matsim.analysis.CalcLegTimes
2016-04-04 10:49:57,622  INFO Injector:82    -> com.google.inject.internal.ConstructorBindingImpl$Factory@3943a2be[Scopes.SINGLETON]
2016-04-04 10:49:57,622  INFO Injector:80 org.matsim.analysis.ScoreStatsControlerListener
2016-04-04 10:49:57,622  INFO Injector:82    -> com.google.inject.internal.ConstructorBindingImpl$Factory@6bf0219d[Scopes.SINGLETON]
2016-04-04 10:49:57,623  INFO ScenarioImpl:277 no transit schedule, and transit not activated from config. You must first call the create method of ScenarioImpl.
2016-04-04 10:49:57,636  INFO StrategyManagerConfigLoader:61 global innovation switch off after iteration: 2147483647
2016-04-04 10:49:57,637  INFO GenericStrategyManager:313 added change request:  iteration=-2147483648 newWeight=0.0 strategy=RandomPlanSelector_ExternalModule
2016-04-04 10:49:57,637  INFO GenericStrategyManager:345 setting PlanSelectorForRemoval to class org.matsim.core.replanning.selectors.WorstPlanForRemovalSelector
2016-04-04 10:49:57,640  INFO EventsManagerImpl:144 adding Event-Handler: org.matsim.core.trafficmonitoring.TravelTimeCalculator
2016-04-04 10:49:57,640  INFO EventsManagerImpl:148   org.matsim.api.core.v01.events.handler.LinkEnterEventHandler
2016-04-04 10:49:57,640  INFO EventsManagerImpl:207     > org.matsim.api.core.v01.events.LinkEnterEvent
2016-04-04 10:49:57,640  INFO EventsManagerImpl:148   org.matsim.api.core.v01.events.handler.LinkLeaveEventHandler
2016-04-04 10:49:57,640  INFO EventsManagerImpl:207     > org.matsim.api.core.v01.events.LinkLeaveEvent
2016-04-04 10:49:57,641  INFO EventsManagerImpl:148   org.matsim.api.core.v01.events.handler.PersonDepartureEventHandler
2016-04-04 10:49:57,641  INFO EventsManagerImpl:207     > org.matsim.api.core.v01.events.PersonDepartureEvent
2016-04-04 10:49:57,641  INFO EventsManagerImpl:148   org.matsim.api.core.v01.events.handler.PersonArrivalEventHandler
2016-04-04 10:49:57,641  INFO EventsManagerImpl:207     > org.matsim.api.core.v01.events.PersonArrivalEvent
2016-04-04 10:49:57,641  INFO EventsManagerImpl:148   org.matsim.core.api.experimental.events.handler.VehicleArrivesAtFacilityEventHandler
2016-04-04 10:49:57,641  INFO EventsManagerImpl:207     > org.matsim.core.api.experimental.events.VehicleArrivesAtFacilityEvent
2016-04-04 10:49:57,641  INFO EventsManagerImpl:148   org.matsim.api.core.v01.events.handler.TransitDriverStartsEventHandler
2016-04-04 10:49:57,641  INFO EventsManagerImpl:207     > org.matsim.api.core.v01.events.TransitDriverStartsEvent
2016-04-04 10:49:57,641  INFO EventsManagerImpl:148   org.matsim.api.core.v01.events.handler.PersonStuckEventHandler
2016-04-04 10:49:57,641  INFO EventsManagerImpl:207     > org.matsim.api.core.v01.events.PersonStuckEvent
2016-04-04 10:49:57,641  INFO EventsManagerImpl:156 
2016-04-04 10:49:57,642  INFO EventsManagerImpl:144 adding Event-Handler: org.matsim.core.trafficmonitoring.TravelTimeCalculator
2016-04-04 10:49:57,642  INFO EventsManagerImpl:148   org.matsim.api.core.v01.events.handler.LinkEnterEventHandler
2016-04-04 10:49:57,642  INFO EventsManagerImpl:207     > org.matsim.api.core.v01.events.LinkEnterEvent
2016-04-04 10:49:57,642  INFO EventsManagerImpl:148   org.matsim.api.core.v01.events.handler.LinkLeaveEventHandler
2016-04-04 10:49:57,642  INFO EventsManagerImpl:207     > org.matsim.api.core.v01.events.LinkLeaveEvent
2016-04-04 10:49:57,642  INFO EventsManagerImpl:148   org.matsim.api.core.v01.events.handler.PersonDepartureEventHandler
2016-04-04 10:49:57,642  INFO EventsManagerImpl:207     > org.matsim.api.core.v01.events.PersonDepartureEvent
2016-04-04 10:49:57,642  INFO EventsManagerImpl:148   org.matsim.api.core.v01.events.handler.PersonArrivalEventHandler
2016-04-04 10:49:57,642  INFO EventsManagerImpl:207     > org.matsim.api.core.v01.events.PersonArrivalEvent
2016-04-04 10:49:57,642  INFO EventsManagerImpl:148   org.matsim.core.api.experimental.events.handler.VehicleArrivesAtFacilityEventHandler
2016-04-04 10:49:57,642  INFO EventsManagerImpl:207     > org.matsim.core.api.experimental.events.VehicleArrivesAtFacilityEvent
2016-04-04 10:49:57,642  INFO EventsManagerImpl:148   org.matsim.api.core.v01.events.handler.TransitDriverStartsEventHandler
2016-04-04 10:49:57,642  INFO EventsManagerImpl:207     > org.matsim.api.core.v01.events.TransitDriverStartsEvent
2016-04-04 10:49:57,642  INFO EventsManagerImpl:148   org.matsim.api.core.v01.events.handler.PersonStuckEventHandler
2016-04-04 10:49:57,642  INFO EventsManagerImpl:207     > org.matsim.api.core.v01.events.PersonStuckEvent
2016-04-04 10:49:57,642  INFO EventsManagerImpl:156 
2016-04-04 10:49:57,643  INFO EventsManagerImpl:144 adding Event-Handler: org.matsim.analysis.VolumesAnalyzer
2016-04-04 10:49:57,643  INFO EventsManagerImpl:148   org.matsim.api.core.v01.events.handler.LinkLeaveEventHandler
2016-04-04 10:49:57,643  INFO EventsManagerImpl:207     > org.matsim.api.core.v01.events.LinkLeaveEvent
2016-04-04 10:49:57,643  INFO EventsManagerImpl:148   org.matsim.api.core.v01.events.handler.PersonDepartureEventHandler
2016-04-04 10:49:57,643  INFO EventsManagerImpl:207     > org.matsim.api.core.v01.events.PersonDepartureEvent
2016-04-04 10:49:57,643  INFO EventsManagerImpl:156 
2016-04-04 10:49:57,643  INFO EventsManagerImpl:144 adding Event-Handler: org.matsim.analysis.VolumesAnalyzer
2016-04-04 10:49:57,643  INFO EventsManagerImpl:148   org.matsim.api.core.v01.events.handler.LinkLeaveEventHandler
2016-04-04 10:49:57,643  INFO EventsManagerImpl:207     > org.matsim.api.core.v01.events.LinkLeaveEvent
2016-04-04 10:49:57,643  INFO EventsManagerImpl:148   org.matsim.api.core.v01.events.handler.PersonDepartureEventHandler
2016-04-04 10:49:57,643  INFO EventsManagerImpl:207     > org.matsim.api.core.v01.events.PersonDepartureEvent
2016-04-04 10:49:57,643  INFO EventsManagerImpl:156 
2016-04-04 10:49:57,643  INFO EventsManagerImpl:144 adding Event-Handler: org.matsim.analysis.LegHistogram
2016-04-04 10:49:57,643  INFO EventsManagerImpl:148   org.matsim.api.core.v01.events.handler.PersonDepartureEventHandler
2016-04-04 10:49:57,643  INFO EventsManagerImpl:207     > org.matsim.api.core.v01.events.PersonDepartureEvent
2016-04-04 10:49:57,643  INFO EventsManagerImpl:148   org.matsim.api.core.v01.events.handler.PersonArrivalEventHandler
2016-04-04 10:49:57,644  INFO EventsManagerImpl:207     > org.matsim.api.core.v01.events.PersonArrivalEvent
2016-04-04 10:49:57,644  INFO EventsManagerImpl:148   org.matsim.api.core.v01.events.handler.PersonStuckEventHandler
2016-04-04 10:49:57,644  INFO EventsManagerImpl:207     > org.matsim.api.core.v01.events.PersonStuckEvent
2016-04-04 10:49:57,644  INFO EventsManagerImpl:156 
2016-04-04 10:49:57,644  INFO EventsManagerImpl:144 adding Event-Handler: org.matsim.analysis.LegHistogram
2016-04-04 10:49:57,644  INFO EventsManagerImpl:148   org.matsim.api.core.v01.events.handler.PersonDepartureEventHandler
2016-04-04 10:49:57,644  INFO EventsManagerImpl:207     > org.matsim.api.core.v01.events.PersonDepartureEvent
2016-04-04 10:49:57,644  INFO EventsManagerImpl:148   org.matsim.api.core.v01.events.handler.PersonArrivalEventHandler
2016-04-04 10:49:57,644  INFO EventsManagerImpl:207     > org.matsim.api.core.v01.events.PersonArrivalEvent
2016-04-04 10:49:57,644  INFO EventsManagerImpl:148   org.matsim.api.core.v01.events.handler.PersonStuckEventHandler
2016-04-04 10:49:57,644  INFO EventsManagerImpl:207     > org.matsim.api.core.v01.events.PersonStuckEvent
2016-04-04 10:49:57,644  INFO EventsManagerImpl:156 
2016-04-04 10:49:57,644  INFO EventsManagerImpl:144 adding Event-Handler: org.matsim.analysis.CalcLegTimes
2016-04-04 10:49:57,644  INFO EventsManagerImpl:148   org.matsim.api.core.v01.events.handler.PersonDepartureEventHandler
2016-04-04 10:49:57,644  INFO EventsManagerImpl:207     > org.matsim.api.core.v01.events.PersonDepartureEvent
2016-04-04 10:49:57,644  INFO EventsManagerImpl:148   org.matsim.api.core.v01.events.handler.PersonArrivalEventHandler
2016-04-04 10:49:57,645  INFO EventsManagerImpl:207     > org.matsim.api.core.v01.events.PersonArrivalEvent
2016-04-04 10:49:57,645  INFO EventsManagerImpl:148   org.matsim.api.core.v01.events.handler.ActivityEndEventHandler
2016-04-04 10:49:57,645  INFO EventsManagerImpl:207     > org.matsim.api.core.v01.events.ActivityEndEvent
2016-04-04 10:49:57,645  INFO EventsManagerImpl:148   org.matsim.api.core.v01.events.handler.ActivityStartEventHandler
2016-04-04 10:49:57,645  INFO EventsManagerImpl:207     > org.matsim.api.core.v01.events.ActivityStartEvent
2016-04-04 10:49:57,645  INFO EventsManagerImpl:156 
2016-04-04 10:49:57,645  INFO EventsManagerImpl:144 adding Event-Handler: org.matsim.analysis.CalcLegTimes
2016-04-04 10:49:57,645  INFO EventsManagerImpl:148   org.matsim.api.core.v01.events.handler.PersonDepartureEventHandler
2016-04-04 10:49:57,645  INFO EventsManagerImpl:207     > org.matsim.api.core.v01.events.PersonDepartureEvent
2016-04-04 10:49:57,645  INFO EventsManagerImpl:148   org.matsim.api.core.v01.events.handler.PersonArrivalEventHandler
2016-04-04 10:49:57,645  INFO EventsManagerImpl:207     > org.matsim.api.core.v01.events.PersonArrivalEvent
2016-04-04 10:49:57,645  INFO EventsManagerImpl:148   org.matsim.api.core.v01.events.handler.ActivityEndEventHandler
2016-04-04 10:49:57,645  INFO EventsManagerImpl:207     > org.matsim.api.core.v01.events.ActivityEndEvent
2016-04-04 10:49:57,646  INFO EventsManagerImpl:148   org.matsim.api.core.v01.events.handler.ActivityStartEventHandler
2016-04-04 10:49:57,646  INFO EventsManagerImpl:207     > org.matsim.api.core.v01.events.ActivityStartEvent
2016-04-04 10:49:57,646  INFO EventsManagerImpl:156 
2016-04-04 10:49:57,646  INFO CalcLinkStats:148  resetting `count' to zero.  This info is here since we want to check when this is happening during normal simulation runs.  kai, jan'11
2016-04-04 10:49:57,648  INFO ControlerListenerManager:108 calling notifyStartup on org.matsim.counts.CountsControlerListener
2016-04-04 10:49:57,648  INFO ControlerListenerManager:108 calling notifyStartup on org.matsim.analysis.ScoreStatsControlerListener
2016-04-04 10:49:57,648  INFO ControlerListenerManager:111 all ControlerStartupListeners called.
2016-04-04 10:49:57,648  INFO ControlerUtils:57 config dump before iterations start
2016-04-04 10:49:57,652  INFO ControlerUtils:61 

<?xml version="1.0" encoding="UTF-8"?>
<!DOCTYPE config SYSTEM "http://www.matsim.org/files/dtd/config_v2.dtd">
<config>

<!-- ====================================================================== -->

	<module name="TimeAllocationMutator" >
		<param name="mutationAffectsDuration" value="true" />

		<!-- Default:1800.0; Defines how many seconds a time mutation can maximally shift a time. -->
		<param name="mutationRange" value="1800.0" />
	</module>

<!-- ====================================================================== -->

	<module name="controler" >

		<!-- Default=false;  -->
		<param name="enableLinkToLinkRouting" value="false" />

		<!-- Default=xml; Specifies the file format for writing events. Currently supported: txt, xml.
		Multiple values can be specified separated by commas (','). -->
		<param name="eventsFileFormat" value="xml" />

		<!-- Default=0;  -->
		<param name="firstIteration" value="0" />

		<!-- Default=1000;  -->
		<param name="lastIteration" value="1" />

		<!-- Defines which mobility simulation will be used. Currently supported: qsim JDEQSim 
		Depending on the chosen mobsim, you'll have to add additional config modules to configure the corresponding mobsim.
		For 'qsim', add a module 'qsim' to the config. -->
		<param name="mobsim" value="qsim" />

		<param name="outputDirectory" value="./output/externalReplanning" />

		<!-- Possible values: failIfDirectoryExists, overwriteExistingFiles, deleteDirectoryIfExists -->
		<param name="overwriteFiles" value="failIfDirectoryExists" />

		<!-- The type of routing (least cost path) algorithm used, may have the values: Dijkstra, FastDijkstra, AStarLandmarks or FastAStarLandmarks -->
		<param name="routingAlgorithmType" value="Dijkstra" />

		<!-- An identifier for the current run which is used as prefix for output files and mentioned in output xml files etc. -->
		<param name="runId" value="null" />

		<!-- Comma-separated list of visualizer output file formats. `transims', `googleearth', and `otfvis'. -->
		<param name="snapshotFormat" value="otfvis" />

		<!-- iterationNumber % writeEventsInterval == 0 defines in which iterations events are written to a file. `0' disables events writing completely. -->
		<param name="writeEventsInterval" value="10" />

		<!-- iterationNumber % writePlansInterval == 0 defines (hopefully) in which iterations plans are written to a file. `0' disables plans writing completely.  Some plans in early iterations are always written -->
		<param name="writePlansInterval" value="10" />

		<!-- iterationNumber % writeSnapshotsInterval == 0 defines in which iterations snapshots are written to a file. `0' disables snapshots writing completely -->
		<param name="writeSnapshotsInterval" value="1" />
	</module>

<!-- ====================================================================== -->

	<module name="counts" >

		<!-- Transport modes that will be respected for the counts comparison. 'car' is default, which includes also bussed from the pt simulation module. Use this parameter in combination with 'filterModes' = true! -->
		<param name="analyzedModes" value="car" />

		<!-- Specifies over how many iterations the link volumes should be averaged that are used for the counts comparison. Use 1 or 0 to only use the link volumes of a single iteration. This values cannot be larger than the value specified for writeCountsInterval -->
		<param name="averageCountsOverIterations" value="5" />

		<!-- factor by which to re-scale the simulated values.  necessary when simulation runs with something different from 100%.  needs to be adapted manually -->
		<param name="countsScaleFactor" value="1.0" />

		<!-- distance to distanceFilterCenterNode to include counting stations. The unit of distance is the Euclidean distance implied by the coordinate system -->
		<param name="distanceFilter" value="null" />

		<!-- node id for center node of distance filter -->
		<param name="distanceFilterCenterNode" value="null" />

		<!-- If true, link counts from legs performed on modes not included in the 'analyzedModes' parameter are ignored. -->
		<param name="filterModes" value="false" />

		<!-- input file name to counts package -->
		<param name="inputCountsFile" value="null" />

		<!-- possible values: `html', `kml', `txt', `all' -->
		<param name="outputformat" value="txt" />

		<!-- Specifies how often the counts comparison should be calculated and written. -->
		<param name="writeCountsInterval" value="10" />
	</module>

<!-- ====================================================================== -->

	<module name="facilities" >
		<param name="inputFacilitiesFile" value="null" />
		<param name="inputFacilityAttributesFile" value="null" />
	</module>

<!-- ====================================================================== -->

	<module name="global" >
		<param name="coordinateSystem" value="Atlantis" />

		<!-- "global" number of threads.  This number is used, e.g., for replanning, but NOT in the mobsim.  This can typically be set to as many cores as you have available, or possibly even slightly more. -->
		<param name="numberOfThreads" value="2" />

		<param name="randomSeed" value="4711" />
	</module>

<!-- ====================================================================== -->

	<module name="households" >
		<param name="inputFile" value="null" />
		<param name="inputHouseholdAttributesFile" value="null" />
	</module>

<!-- ====================================================================== -->

	<module name="linkStats" >

		<!-- Specifies over how many iterations the link volumes should be averaged that are used for the link statistics. Use 1 or 0 to only use the link volumes of a single iteration. This values cannot be larger than the value specified for writeLinkStatsInterval -->
		<param name="averageLinkStatsOverIterations" value="5" />

		<!-- Specifies how often the link stats should be calculated and written. Use 0 to disable the generation of link stats. -->
		<param name="writeLinkStatsInterval" value="10" />
	</module>

<!-- ====================================================================== -->

	<module name="network" >
		<param name="inputChangeEventsFile" value="null" />
		<param name="inputNetworkFile" value="./examples/equil/network.xml" />
		<param name="laneDefinitionsFile" value="null" />
		<param name="timeVariantNetwork" value="false" />
	</module>

<!-- ====================================================================== -->

	<module name="parallelEventHandling" >

		<!-- Estimated number of events during mobsim run. An optional optimization hint for the framework. -->
		<param name="estimatedNumberOfEvents" value="null" />

		<!-- Number of threads for parallel events handler. 0 or null means the framework decides by itself. -->
		<param name="numberOfThreads" value="null" />

		<param name="synchronizeOnSimSteps" value="true" />
	</module>

<!-- ====================================================================== -->

	<module name="planCalcScore" >

		<!-- logit model scale parameter. default: 1.  Has name and default value for historical reasons (see Bryan Raney's phd thesis). -->
		<param name="BrainExpBeta" value="2.0" />

		<param name="PathSizeLogitBeta" value="1.0" />

		<!-- [utils/hr] utility for departing early (i.e. before the earliest end time).  Normally negative.  Probably implemented correctly, but not tested. -->
		<param name="earlyDeparture" value="-0.0" />

		<!-- fraction of iterations at which MSA score averaging is started. The matsim theory department suggests to use this together with switching off choice set innovation (where a similar switch exists), but it has not been tested yet. -->
		<param name="fractionOfIterationsToStartScoreMSA" value="null" />

		<!-- [utils/hr] utility for arriving late (i.e. after the latest start time).  normally negative -->
		<param name="lateArrival" value="-18.0" />

		<!-- new_score = (1-learningRate)*old_score + learningRate * score_from_mobsim.  learning rates close to zero emulate score averaging, but slow down initial convergence -->
		<param name="learningRate" value="1.0" />

		<!-- [utils/unit_of_money] conversion of money (e.g. toll, distance cost) into utils. Normall positive (i.e. toll/cost/fare are processed as negative amounts of money). -->
		<param name="marginalUtilityOfMoney" value="1.0" />

		<!-- [utils/hr] marginal utility of doing an activity.  normally positive.  also the opportunity cost of time if agent is doing nothing.  MATSim separates the resource value of time from the direct (dis)utility of travel time, see, e.g., Boerjesson and Eliasson, TR-A 59 (2014) 144-158. -->
		<param name="performing" value="6.0" />

		<!-- There used to be a plateau between duration=0 and duration=zeroUtilityDuration. This caused durations to evolve to zero once they were below zeroUtilityDuration, causing problems.  Only use this switch if you need to be backwards compatible with some old results.  (changed nov'13) -->
		<param name="usingOldScoringBelowZeroUtilityDuration" value="false" />

		<!-- [utils] utility of switching a line (= transfer penalty).  Normally negative -->
		<param name="utilityOfLineSwitch" value="-1.0" />

		<!-- [utils/hr] additional marginal utility for waiting. normally negative. this comes on top of the opportunity cost of time.  Probably implemented correctly, but not tested. -->
		<param name="waiting" value="-0.0" />

		<!-- write a plans file in each iteration directory which contains what each agent actually did, and the score it received. -->
		<param name="writeExperiencedPlans" value="false" />

		<parameterset type="activityParams" >
			<param name="activityType" value="h" />
			<param name="closingTime" value="undefined" />
			<param name="earliestEndTime" value="undefined" />
			<param name="latestStartTime" value="undefined" />
			<param name="minimalDuration" value="08:00:00" />
			<param name="openingTime" value="undefined" />
			<param name="priority" value="1.0" />
			<param name="scoringThisActivityAtAll" value="true" />
			<param name="typicalDuration" value="12:00:00" />

			<!-- method to compute score at typical duration.  Use uniform for backwards compatibility (all activities same score; higher proba to drop long acts). -->
			<param name="typicalDurationScoreComputation" value="uniform" />
		</parameterset>

		<parameterset type="activityParams" >
			<param name="activityType" value="w" />
			<param name="closingTime" value="18:00:00" />
			<param name="earliestEndTime" value="undefined" />
			<param name="latestStartTime" value="09:00:00" />
			<param name="minimalDuration" value="06:00:00" />
			<param name="openingTime" value="07:00:00" />
			<param name="priority" value="1.0" />
			<param name="scoringThisActivityAtAll" value="true" />
			<param name="typicalDuration" value="08:00:00" />

			<!-- method to compute score at typical duration.  Use uniform for backwards compatibility (all activities same score; higher proba to drop long acts). -->
			<param name="typicalDurationScoreComputation" value="uniform" />
		</parameterset>

		<parameterset type="modeParams" >

			<!-- [utils] alternative-specific constant.  no guarantee that this is used anywhere. default=0 to be backwards compatible for the time being -->
			<param name="constant" value="0.0" />

			<!-- [utils/m] utility of walking per m, normally negative.  this is on top of the time (dis)utility. -->
			<param name="marginalUtilityOfDistance_util_m" value="0.0" />

			<!-- [utils/hr] additional marginal utility of traveling.  normally negative.  this comes on top of the opportunity cost of time -->
			<param name="marginalUtilityOfTraveling_util_hr" value="-6.0" />

			<param name="mode" value="car" />

			<!-- [unit_of_money/m] conversion of distance into money. Probably needs to be negative to work. -->
			<param name="monetaryDistanceCostRate" value="0.0" />
		</parameterset>

		<parameterset type="modeParams" >

			<!-- [utils] alternative-specific constant.  no guarantee that this is used anywhere. default=0 to be backwards compatible for the time being -->
			<param name="constant" value="0.0" />

			<!-- [utils/m] utility of walking per m, normally negative.  this is on top of the time (dis)utility. -->
			<param name="marginalUtilityOfDistance_util_m" value="0.0" />

			<!-- [utils/hr] additional marginal utility of traveling.  normally negative.  this comes on top of the opportunity cost of time -->
			<param name="marginalUtilityOfTraveling_util_hr" value="-6.0" />

			<param name="mode" value="pt" />

			<!-- [unit_of_money/m] conversion of distance into money. Probably needs to be negative to work. -->
			<param name="monetaryDistanceCostRate" value="0.0" />
		</parameterset>

		<parameterset type="modeParams" >

			<!-- [utils] alternative-specific constant.  no guarantee that this is used anywhere. default=0 to be backwards compatible for the time being -->
			<param name="constant" value="0.0" />

			<!-- [utils/m] utility of walking per m, normally negative.  this is on top of the time (dis)utility. -->
			<param name="marginalUtilityOfDistance_util_m" value="0.0" />

			<!-- [utils/hr] additional marginal utility of traveling.  normally negative.  this comes on top of the opportunity cost of time -->
			<param name="marginalUtilityOfTraveling_util_hr" value="-6.0" />

			<param name="mode" value="walk" />

			<!-- [unit_of_money/m] conversion of distance into money. Probably needs to be negative to work. -->
			<param name="monetaryDistanceCostRate" value="0.0" />
		</parameterset>

		<parameterset type="modeParams" >

			<!-- [utils] alternative-specific constant.  no guarantee that this is used anywhere. default=0 to be backwards compatible for the time being -->
			<param name="constant" value="0.0" />

			<!-- [utils/m] utility of walking per m, normally negative.  this is on top of the time (dis)utility. -->
			<param name="marginalUtilityOfDistance_util_m" value="0.0" />

			<!-- [utils/hr] additional marginal utility of traveling.  normally negative.  this comes on top of the opportunity cost of time -->
			<param name="marginalUtilityOfTraveling_util_hr" value="-6.0" />

			<param name="mode" value="bike" />

			<!-- [unit_of_money/m] conversion of distance into money. Probably needs to be negative to work. -->
			<param name="monetaryDistanceCostRate" value="0.0" />
		</parameterset>

		<parameterset type="modeParams" >

			<!-- [utils] alternative-specific constant.  no guarantee that this is used anywhere. default=0 to be backwards compatible for the time being -->
			<param name="constant" value="0.0" />

			<!-- [utils/m] utility of walking per m, normally negative.  this is on top of the time (dis)utility. -->
			<param name="marginalUtilityOfDistance_util_m" value="0.0" />

			<!-- [utils/hr] additional marginal utility of traveling.  normally negative.  this comes on top of the opportunity cost of time -->
			<param name="marginalUtilityOfTraveling_util_hr" value="-6.0" />

			<param name="mode" value="other" />

			<!-- [unit_of_money/m] conversion of distance into money. Probably needs to be negative to work. -->
			<param name="monetaryDistanceCostRate" value="0.0" />
		</parameterset>
	</module>

<!-- ====================================================================== -->

	<module name="plans" >

		<!-- String: minOfDurationAndEndTime tryEndTimeThenDuration endTimeOnly. Anything besides minOfDurationAndEndTime will internally use a different (simpler) version of the TimeAllocationMutator. -->
		<param name="activityDurationInterpretation" value="tryEndTimeThenDuration" />

		<!-- Path to a file containing person attributes (required file format: ObjectAttributes). -->
		<param name="inputPersonAttributesFile" value="null" />

		<param name="inputPlansFile" value="./examples/equil/plans100.xml" />

		<!-- Defines how routes are stored in memory. Currently supported: LinkNetworkRoute, CompressedNetworkRoute. -->
		<param name="networkRouteType" value="LinkNetworkRoute" />

		<!-- (not tested) will remove plan attributes that are presumably not used, such as activityStartTime. default=false -->
		<param name="removingUnnecessaryPlanAttributes" value="false" />

		<!-- Name of the (Object)Attribute defining the subpopulation to which pertains a Person (as freight, through traffic, etc.). The attribute must be of String type. -->
		<param name="subpopulationAttributeName" value="subpopulation" />
	</module>

<!-- ====================================================================== -->

	<module name="planscalcroute" >

		<!-- All the modes for which the router is supposed to generate network routes (like car) -->
		<param name="networkModes" value="car,ride" />

		<parameterset type="teleportedModeParameters" >
			<param name="beelineDistanceFactor" value="1.3" />
			<param name="mode" value="bike" />

			<!-- Free-speed factor for a teleported mode. Travel time = teleportedModeFreespeedFactor * <freespeed car travel time>. Insert a line like this for every such mode. Please do not set teleportedModeFreespeedFactor as well as teleportedModeSpeed for the same mode, but if you do, +teleportedModeFreespeedFactor wins over teleportedModeSpeed. -->
			<param name="teleportedModeFreespeedFactor" value="null" />

			<!-- Speed for a teleported mode. Travel time = (<beeline distance> * beelineDistanceFactor) / teleportedModeSpeed. Insert a line like this for every such mode. -->
			<param name="teleportedModeSpeed" value="4.166666666666667" />
		</parameterset>

		<parameterset type="teleportedModeParameters" >
			<param name="beelineDistanceFactor" value="1.3" />
			<param name="mode" value="walk" />

			<!-- Free-speed factor for a teleported mode. Travel time = teleportedModeFreespeedFactor * <freespeed car travel time>. Insert a line like this for every such mode. Please do not set teleportedModeFreespeedFactor as well as teleportedModeSpeed for the same mode, but if you do, +teleportedModeFreespeedFactor wins over teleportedModeSpeed. -->
			<param name="teleportedModeFreespeedFactor" value="null" />

			<!-- Speed for a teleported mode. Travel time = (<beeline distance> * beelineDistanceFactor) / teleportedModeSpeed. Insert a line like this for every such mode. -->
			<param name="teleportedModeSpeed" value="0.8333333333333333" />
		</parameterset>

		<parameterset type="teleportedModeParameters" >
			<param name="beelineDistanceFactor" value="1.3" />
			<param name="mode" value="undefined" />

			<!-- Free-speed factor for a teleported mode. Travel time = teleportedModeFreespeedFactor * <freespeed car travel time>. Insert a line like this for every such mode. Please do not set teleportedModeFreespeedFactor as well as teleportedModeSpeed for the same mode, but if you do, +teleportedModeFreespeedFactor wins over teleportedModeSpeed. -->
			<param name="teleportedModeFreespeedFactor" value="null" />

			<!-- Speed for a teleported mode. Travel time = (<beeline distance> * beelineDistanceFactor) / teleportedModeSpeed. Insert a line like this for every such mode. -->
			<param name="teleportedModeSpeed" value="13.88888888888889" />
		</parameterset>

		<parameterset type="teleportedModeParameters" >
			<param name="beelineDistanceFactor" value="1.3" />
			<param name="mode" value="pt" />

			<!-- Free-speed factor for a teleported mode. Travel time = teleportedModeFreespeedFactor * <freespeed car travel time>. Insert a line like this for every such mode. Please do not set teleportedModeFreespeedFactor as well as teleportedModeSpeed for the same mode, but if you do, +teleportedModeFreespeedFactor wins over teleportedModeSpeed. -->
			<param name="teleportedModeFreespeedFactor" value="2.0" />

			<!-- Speed for a teleported mode. Travel time = (<beeline distance> * beelineDistanceFactor) / teleportedModeSpeed. Insert a line like this for every such mode. -->
			<param name="teleportedModeSpeed" value="null" />
		</parameterset>
	</module>

<!-- ====================================================================== -->

	<module name="ptCounts" >

		<!-- factor by which to re-scale the simulated values.  necessary when simulation runs with something different from 100%.  needs to be adapted manually -->
		<param name="countsScaleFactor" value="1.0" />

		<!-- distance to distanceFilterCenterNode to include counting stations. The unit of distance is the Euclidean distance implied by the coordinate system -->
		<param name="distanceFilter" value="null" />

		<!-- node id for center node of distance filter -->
		<param name="distanceFilterCenterNode" value="null" />

		<!-- input file containing the alighting (getting off) counts for pt -->
		<param name="inputAlightCountsFile" value="null" />

		<!-- input file containing the boarding (getting on) counts for pt -->
		<param name="inputBoardCountsFile" value="null" />

		<!-- input file containing the occupancy counts for pt -->
		<param name="inputOccupancyCountsFile" value="null" />

		<!-- possible values: `html', `kml', `txt', `all' -->
		<param name="outputformat" value="null" />

		<!-- every how many iterations (starting with 0) counts comparisons are generated -->
		<param name="ptCountsInterval" value="10" />
	</module>

<!-- ====================================================================== -->

	<module name="qsim" >
		<param name="endTime" value="undefined" />
		<param name="flowCapacityFactor" value="1.0" />

		<!-- decides if waiting vehicles enter the network after or before the already driving vehicles were moved. Default: false -->
		<param name="insertingWaitingVehiclesBeforeDrivingVehicles" value="false" />

		<!-- default: FIFO; options: FIFO PassingQ -->
		<param name="linkDynamics" value="FIFO" />

		<!-- The (initial) width of the links of the network. Use positive floating point values. -->
		<param name="linkWidth" value="30.0" />

		<!-- [comma-separated list] Defines which modes are congested modes. Technically, these are the modes that the departure handler of the netsimengine handles.  Effective cell size, effective lane width, flow capacity factor, and storage capacity factor need to be set with diligence.  Need to be vehicular modes to make sense. -->
		<param name="mainMode" value="car" />

		<!-- Shortens a link in the visualization, i.e. its start and end point are moved into towards the center. Does not affect traffic flow.  -->
		<param name="nodeOffset" value="0.0" />

		<!-- Number of threads used for the QSim.  Note that this setting is independent from the "global" threads setting.  In contrast to earlier versions, the non-parallel special version is no longer there. -->
		<param name="numberOfThreads" value="1" />

		<!-- Boolean. `true': stuck vehicles are removed, aborting the plan; `false': stuck vehicles are forced into the next link. `false' is probably the better choice. -->
		<param name="removeStuckVehicles" value="false" />

		<!-- `maxOfStarttimeAndEarliestActivityEnd' (default behavior) or `onlyUseStarttime' -->
		<param name="simStarttimeInterpretation" value="maxOfStarttimeAndEarliestActivityEnd" />

		<!-- snapshotStyle. One of: equiDist (vehicles equidistant on link) or queue (vehicles queued at end of link) or withHoles (experimental!!) -->
		<param name="snapshotStyle" value="equiDist" />

		<param name="snapshotperiod" value="00:01:00" />
		<param name="startTime" value="undefined" />
		<param name="storageCapacityFactor" value="1.0" />

		<!-- time in seconds.  Time after which the frontmost vehicle on a link is called `stuck' if it does not move. -->
		<param name="stuckTime" value="10.0" />

		<param name="timeStepSize" value="00:00:01" />

		<!-- options: nullqueue withHoles  -->
		<param name="trafficDynamics" value="queue" />

		<!-- If this is true, we do not expect (or use) vehicles from the vehicles database, but create vehicles on the fly with default properties. -->
		<param name="useDefaultVehicles" value="true" />

		<!-- If a route does not reference a vehicle, agents will use the vehicle with the same id as their own. -->
		<param name="usePersonIdForMissingVehicleId" value="true" />

		<!-- normally, the qsim accumulates fractional flows up to one flow unit.  This is impractical with  with smaller PCEs.  If this switch is set to true, cars can enter a link if the accumulated flow is >=0, and the accumulated flow can go into negative.  Will probably become the default eventually. -->
		<param name="usingFastCapacityUpdate" value="false" />

		<!-- if the qsim should use as many runners as there are threads (Christoph's dissertation version) or more of them, together with a thread pool (seems to be faster in some situations, but is not tested). -->
		<param name="usingThreadpool" value="false" />

		<!-- Defines what happens if an agent wants to depart, but the specified vehicle is not available. One of: teleport, wait, exception -->
		<param name="vehicleBehavior" value="teleport" />
	</module>

<!-- ====================================================================== -->

	<module name="scenario" >

		<!-- Set this parameter to true if households should be used, false if not. -->
		<param name="useHouseholds" value="false" />

		<!-- Set this parameter to true if lanes should be used, false if not. -->
		<param name="useLanes" value="false" />

		<!-- Set this parameter to true if signal systems should be used, false if not. -->
		<param name="useSignalsystems" value="false" />

		<!-- Set this parameter to true if transit should be simulated, false if not. -->
		<param name="useTransit" value="false" />

		<!-- Set this parameter to true if vehicles should be used, false if not. -->
		<param name="useVehicles" value="false" />
	</module>

<!-- ====================================================================== -->

	<module name="signalsystems" >
		<param name="actionOnIntergreenViolation" value="warn" />
		<param name="ambertimes" value="null" />
		<param name="intergreentimes" value="null" />
		<param name="signalcontrol" value="null" />
		<param name="signalgroups" value="null" />
		<param name="signalsystems" value="null" />
		<param name="useAmbertimes" value="false" />
		<param name="useIntergreentimes" value="false" />
	</module>

<!-- ====================================================================== -->

	<module name="strategy" >

		<!-- the external executable will be called with a config file as argument.  This is the pathname to a possible skeleton config, to which additional information will be added.  Can be null. -->
		<param name="ExternalExeConfigTemplate" value="null" />

		<!-- time out value (in seconds) after which matsim will consider the external strategy as failed -->
		<param name="ExternalExeTimeOut" value="3600" />

		<!-- root directory for temporary files generated by the external executable. Provided as a service; I don't think this is used by MATSim. -->
		<param name="ExternalExeTmpFileRootDir" value="null" />

		<!-- fraction of iterations where innovative strategies are switched off.  Something link 0.8 should be good.  E.g. if you run from iteration 400 to iteration 500, innovation is switched off at iteration 480 -->
		<param name="fractionOfIterationsToDisableInnovation" value="Infinity" />

		<!-- maximum number of plans per agent.  ``0'' means ``infinity''.  Currently (2010), ``5'' is a good number -->
		<param name="maxAgentPlanMemorySize" value="5" />

		<!-- name of PlanSelector for plans removal.  Possible defaults: WorstPlanSelector SelectRandom SelectExpBetaForRemoval ChangeExpBetaForRemoval PathSizeLogitSelectorForRemoval . The current default, WorstPlanSelector is not a good choice from a discrete choice theoretical perspective. Alternatives, however, have not been systematically tested. kai, feb'12 -->
		<param name="planSelectorForRemoval" value="WorstPlanSelector" />

		<parameterset type="strategysettings" >

			<!-- iteration after which strategy will be disabled.  most useful for ``innovative'' strategies (new routes, new times, ...). Normally, better use fractionOfIterationsToDisableInnovation -->
			<param name="disableAfterIteration" value="-1" />

			<!-- path to external executable (if applicable) -->
			<param name="executionPath" value="null" />

			<!-- name of strategy.  Possible default names: KeepLastSelected BestScore ChangeExpBeta SelectExpBeta SelectRandom SelectPathSizeLogit  (selectors), ReRoute TimeAllocationMutator ChangeLegMode TimeAllocationMutator_ReRoute ChangeSingleLegMode ChangeSingleTripMode SubtourModeChoice ChangeTripMode TripSubtourModeChoice  (innovative strategies). -->
			<param name="strategyName" value="BestScore" />

			<!-- subpopulation to which the strategy applies. "null" refers to the default population, that is, the set of persons for which no explicit subpopulation is defined (ie no subpopulation attribute) -->
			<param name="subpopulation" value="null" />

			<!-- weight of a strategy: for each agent, a strategy will be selected with a probability proportional to its weight -->
			<param name="weight" value="0.9" />
		</parameterset>

		<parameterset type="strategysettings" >

			<!-- iteration after which strategy will be disabled.  most useful for ``innovative'' strategies (new routes, new times, ...). Normally, better use fractionOfIterationsToDisableInnovation -->
			<param name="disableAfterIteration" value="-1" />

			<!-- path to external executable (if applicable) -->
			<param name="executionPath" value="java -jar ./examples/external/replanning.jar" />

			<!-- name of strategy.  Possible default names: KeepLastSelected BestScore ChangeExpBeta SelectExpBeta SelectRandom SelectPathSizeLogit  (selectors), ReRoute TimeAllocationMutator ChangeLegMode TimeAllocationMutator_ReRoute ChangeSingleLegMode ChangeSingleTripMode SubtourModeChoice ChangeTripMode TripSubtourModeChoice  (innovative strategies). -->
			<param name="strategyName" value="ExternalModule" />

			<!-- subpopulation to which the strategy applies. "null" refers to the default population, that is, the set of persons for which no explicit subpopulation is defined (ie no subpopulation attribute) -->
			<param name="subpopulation" value="null" />

			<!-- weight of a strategy: for each agent, a strategy will be selected with a probability proportional to its weight -->
			<param name="weight" value="0.1" />
		</parameterset>
	</module>

<!-- ====================================================================== -->

	<module name="subtourModeChoice" >

		<!-- Defines the chain-based modes, seperated by commas -->
		<param name="chainBasedModes" value="car,bike" />

		<!-- Defines whether car availability must be considered or not. A agent has no car only if it has no license, or never access to a car -->
		<param name="considerCarAvailability" value="false" />

		<!-- Defines all the modes available, including chain-based modes, seperated by commas -->
		<param name="modes" value="car,pt,bike,walk" />
	</module>

<!-- ====================================================================== -->

	<module name="transit" >

		<!-- Optional input file containing additional attributes for transit lines, stored as ObjectAttributes. -->
		<param name="transitLinesAttributesFile" value="null" />

		<!-- Comma-separated list of transportation modes that are handled as transit. Defaults to 'pt'. -->
		<param name="transitModes" value="pt" />

		<!-- Input file containing the transit schedule to be simulated. -->
		<param name="transitScheduleFile" value="null" />

		<!-- Optional input file containing additional attributes for transit stop facilities, stored as ObjectAttributes. -->
		<param name="transitStopsAttributesFile" value="null" />

		<!-- Input file containing the vehicles used by the departures in the transit schedule. -->
		<param name="vehiclesFile" value="null" />
	</module>

<!-- ====================================================================== -->

	<module name="transitRouter" >

		<!-- additional time the router allocates when a line switch happens. Can be interpreted as a 'safety' time that agents need to safely transfer from one line to another -->
		<param name="additionalTransferTime" value="0.0" />

		<!-- step size to increase searchRadius if no stops are found -->
		<param name="extensionRadius" value="200.0" />

		<!-- maximum beeline distance between stops that agents could transfer to by walking -->
		<param name="maxBeelineWalkConnectionDistance" value="100.0" />

		<!-- the radius in which stop locations are searched, given a start or target coordinate -->
		<param name="searchRadius" value="1000.0" />
	</module>

<!-- ====================================================================== -->

	<module name="travelTimeCalculator" >

		<!-- Transport modes that will be respected by the travel time collector. 'car' is default, which includes also bussed from the pt simulation module. Use this parameter in combination with 'filterModes' = true! -->
		<param name="analyzedModes" value="car" />

		<param name="calculateLinkToLinkTravelTimes" value="false" />
		<param name="calculateLinkTravelTimes" value="true" />

		<!-- If true, link travel times from legs performed on modes not included in the 'analyzedModes' parameter are ignored. -->
		<param name="filterModes" value="false" />

		<!-- How to deal with congested time bins that have no link entry events. `optimistic' assumes free speed (too optimistic); 'experimental_LastMile' is experimental and probably too pessimistic. -->
		<param name="travelTimeAggregator" value="optimistic" />

		<!-- The size of the time bin (in sec) into which the link travel times are aggregated for the router -->
		<param name="travelTimeBinSize" value="900" />

		<!-- possible values: nullTravelTimeCalculatorArray TravelTimeCalculatorHashMap  -->
		<param name="travelTimeCalculator" value="TravelTimeCalculatorArray" />

		<!-- How to deal with link entry times at different positions during the time bin. Currently supported: average, linearinterpolation -->
		<param name="travelTimeGetter" value="average" />
	</module>

<!-- ====================================================================== -->

	<module name="vehicles" >
		<param name="vehiclesFile" value="null" />
	</module>

<!-- ====================================================================== -->

	<module name="vspExperimental" >

		<!-- (do not use) Set this filename of MZ05 daily analysis -->
		<param name="inputMZ05File" value="" />

		<!-- (do not use except of you have to) There was a problem with pt interaction scoring.  Some people solved it by overwriting the parameters of the pt interaction activity type.  Doing this now throws an Exception.  If you still insist on doing this, set the following to true. -->
		<param name="isAbleToOverwritePtInteractionParams" value="false" />

		<param name="isGeneratingBoardingDeniedEvent" value="false" />

		<!-- if an approximation of the opportunity cost of time is included into the radius calculation for location choice.`true' will be faster, but it is an approximation.  Default is `true'; `false' is available for backwards compatibility. -->
		<param name="isUsingOpportunityCostOfTimeForLocationChoice" value="true" />

		<param name="logitScaleParamForPlansRemoval" value="1.0" />

		<!-- Options: [Lorg.matsim.core.config.groups.VspExperimentalConfigGroup$VspDefaultsCheckingLevel;@3e11f9e9.  When violating VSP defaults, this results in nothing, logfile infos, logfile warnings, or aborts.  Members of VSP should use `abort' or talk to kai. -->
		<param name="vspDefaultsCheckingLevel" value="ignore" />

		<!-- if true then writes output_events in output directory.  default is `false'. Will only work when lastIteration is multiple of events writing interval -->
		<param name="writingOutputEvents" value="false" />
	</module>

<!-- ====================================================================== -->

</config>

2016-04-04 10:49:57,653  INFO ControlerUtils:62 Complete config dump done.
2016-04-04 10:49:57,653  INFO ControlerUtils:63 Checking consistency of config...
2016-04-04 10:49:57,654  INFO VspConfigConsistencyCheckerImpl:55 NOT running vsp config consistency check because vsp defaults checking level is set to IGNORE
2016-04-04 10:49:57,654  INFO ControlerUtils:65 Checking consistency of config done.
2016-04-04 10:49:57,665  INFO Counter:51 [PersonPrepareForSim] handled person # 1
2016-04-04 10:49:57,665  INFO Counter:51 [PersonPrepareForSim] handled person # 2
2016-04-04 10:49:57,665  INFO Counter:51 [PersonPrepareForSim] handled person # 4
2016-04-04 10:49:57,666  INFO Counter:51 [PersonPrepareForSim] handled person # 8
2016-04-04 10:49:57,667  INFO Counter:51 [PersonPrepareForSim] handled person # 16
2016-04-04 10:49:57,668  INFO Counter:51 [PersonPrepareForSim] handled person # 32
2016-04-04 10:49:57,670  INFO Counter:51 [PersonPrepareForSim] handled person # 64
2016-04-04 10:49:57,672  INFO Counter:57 [PersonPrepareForSim] handled person # 100
2016-04-04 10:49:57,672  INFO AbstractController:240 ###################################################
2016-04-04 10:49:57,672  INFO AbstractController:241 ### ITERATION 0 BEGINS
2016-04-04 10:49:57,673  INFO ControlerListenerManager:141 calling notifyIterationStarts on org.matsim.core.controler.corelisteners.PlansScoringImpl
2016-04-04 10:49:57,678  INFO EventsManagerImpl:144 adding Event-Handler: org.matsim.core.scoring.EventsToScore
2016-04-04 10:49:57,679  INFO EventsManagerImpl:148   org.matsim.core.events.handler.BasicEventHandler
2016-04-04 10:49:57,679  INFO EventsManagerImpl:207     > org.matsim.api.core.v01.events.Event
2016-04-04 10:49:57,679  INFO EventsManagerImpl:156 
2016-04-04 10:49:57,679  INFO EventsManagerImpl:144 adding Event-Handler: org.matsim.core.scoring.EventsToScore
2016-04-04 10:49:57,679  INFO EventsManagerImpl:148   org.matsim.core.events.handler.BasicEventHandler
2016-04-04 10:49:57,679  INFO EventsManagerImpl:207     > org.matsim.api.core.v01.events.Event
2016-04-04 10:49:57,679  INFO EventsManagerImpl:156 
2016-04-04 10:49:57,679  INFO ControlerListenerManager:146 calling notifyIterationStarts on org.matsim.core.controler.corelisteners.LegHistogramListener
2016-04-04 10:49:57,679  INFO ControlerListenerManager:146 calling notifyIterationStarts on org.matsim.core.controler.corelisteners.LinkStatsControlerListener
2016-04-04 10:49:57,679  INFO ControlerListenerManager:149 [it.0] all ControlerIterationStartsListeners called.
2016-04-04 10:49:57,679  INFO ControlerListenerManager:225 calling notifyBeforeMobsim on org.matsim.core.controler.corelisteners.EventsHandlingImpl
2016-04-04 10:49:57,679  INFO EventsManagerImpl:170 resetting Event-Handlers
2016-04-04 10:49:57,680  INFO EventsManagerImpl:177   org.matsim.core.trafficmonitoring.TravelTimeCalculator
2016-04-04 10:49:57,680  INFO EventsManagerImpl:177   org.matsim.analysis.VolumesAnalyzer
2016-04-04 10:49:57,680  INFO EventsManagerImpl:177   org.matsim.analysis.LegHistogram
2016-04-04 10:49:57,680  INFO EventsManagerImpl:177   org.matsim.analysis.CalcLegTimes
2016-04-04 10:49:57,680  INFO EventsManagerImpl:177   org.matsim.core.scoring.EventsToScore
2016-04-04 10:49:57,682  INFO EventsManagerImpl:144 adding Event-Handler: org.matsim.core.events.algorithms.EventWriterXML
2016-04-04 10:49:57,682  INFO EventsManagerImpl:148   org.matsim.core.events.algorithms.EventWriter
2016-04-04 10:49:57,682  INFO EventsManagerImpl:148   org.matsim.core.events.handler.BasicEventHandler
2016-04-04 10:49:57,682  INFO EventsManagerImpl:207     > org.matsim.api.core.v01.events.Event
2016-04-04 10:49:57,682  INFO EventsManagerImpl:156 
2016-04-04 10:49:57,682  INFO EventsManagerImpl:144 adding Event-Handler: org.matsim.core.events.algorithms.EventWriterXML
2016-04-04 10:49:57,682  INFO EventsManagerImpl:148   org.matsim.core.events.algorithms.EventWriter
2016-04-04 10:49:57,682  INFO EventsManagerImpl:148   org.matsim.core.events.handler.BasicEventHandler
2016-04-04 10:49:57,682  INFO EventsManagerImpl:207     > org.matsim.api.core.v01.events.Event
2016-04-04 10:49:57,682  INFO EventsManagerImpl:156 
2016-04-04 10:49:57,683  INFO ControlerListenerManager:225 calling notifyBeforeMobsim on org.matsim.core.controler.corelisteners.PlansDumpingImpl
2016-04-04 10:49:57,683  INFO PlansDumpingImpl:93 dumping plans...
2016-04-04 10:49:57,685  INFO Counter:51 [PopulationWriter] dumped person # 1
2016-04-04 10:49:57,685  INFO Counter:51 [PopulationWriter] dumped person # 2
2016-04-04 10:49:57,685  INFO Counter:51 [PopulationWriter] dumped person # 4
2016-04-04 10:49:57,685  INFO Counter:51 [PopulationWriter] dumped person # 8
2016-04-04 10:49:57,686  INFO Counter:51 [PopulationWriter] dumped person # 16
2016-04-04 10:49:57,687  INFO Counter:51 [PopulationWriter] dumped person # 32
2016-04-04 10:49:57,689  INFO Counter:51 [PopulationWriter] dumped person # 64
2016-04-04 10:49:57,691  INFO PopulationWriter:95 Population written to: ./output/externalReplanning/ITERS/it.0/0.plans.xml.gz
2016-04-04 10:49:57,691  INFO Counter:57 [PopulationWriter] dumped person # 100
2016-04-04 10:49:57,691  INFO PlansDumpingImpl:95 finished plans dump.
2016-04-04 10:49:57,691  INFO ControlerListenerManager:230 calling notifyBeforeMobsim on org.matsim.population.VspPlansCleaner
2016-04-04 10:49:57,692  INFO ControlerListenerManager:233 [it.0] all ControlerBeforeMobsimListeners called.
2016-04-04 10:49:57,704  WARN QueueWithBuffer:426 Link 1 too small: enlarge storage capacity from: 1333.3333333333333 Vehicles to: 3599.712023038157 Vehicles.  This is not fatal, but modifies the traffic flow dynamics.
2016-04-04 10:49:57,705  WARN QueueWithBuffer:426 Link 20 too small: enlarge storage capacity from: 1333.3333333333333 Vehicles to: 3599.712023038157 Vehicles.  This is not fatal, but modifies the traffic flow dynamics.
2016-04-04 10:49:57,705  WARN QueueWithBuffer:426 Link 21 too small: enlarge storage capacity from: 1333.3333333333333 Vehicles to: 3599.712023038157 Vehicles.  This is not fatal, but modifies the traffic flow dynamics.
2016-04-04 10:49:57,705  WARN QueueWithBuffer:426 Link 22 too small: enlarge storage capacity from: 4666.666666666667 Vehicles to: 12598.99208063355 Vehicles.  This is not fatal, but modifies the traffic flow dynamics.
2016-04-04 10:49:57,705  WARN QueueWithBuffer:426 Link 23 too small: enlarge storage capacity from: 1333.3333333333333 Vehicles to: 3599.712023038157 Vehicles.  This is not fatal, but modifies the traffic flow dynamics.
2016-04-04 10:49:57,708  INFO MobsimListenerManager:49 calling addQueueSimulationListener
2016-04-04 10:49:57,709  INFO MobsimListenerManager:53   assigned class org.matsim.core.mobsim.framework.listeners.MobsimListener to interface org.matsim.core.mobsim.framework.listeners.MobsimInitializedListener
2016-04-04 10:49:57,709  INFO MobsimListenerManager:53   assigned class org.matsim.core.mobsim.framework.listeners.MobsimListener to interface org.matsim.core.mobsim.framework.listeners.MobsimBeforeCleanupListener
2016-04-04 10:49:57,709  INFO MobsimListenerManager:53   assigned class org.matsim.core.mobsim.framework.listeners.MobsimListener to interface org.matsim.core.mobsim.framework.listeners.MobsimListener
2016-04-04 10:49:57,709  INFO MobsimListenerManager:53   assigned class org.matsim.core.mobsim.framework.listeners.MobsimListener to interface org.matsim.core.mobsim.framework.listeners.MobsimAfterSimStepListener
2016-04-04 10:49:57,709  INFO MobsimListenerManager:53   assigned class org.matsim.core.mobsim.framework.listeners.MobsimListener to interface org.matsim.vis.snapshotwriters.SnapshotWriterManager
2016-04-04 10:49:57,712  WARN QVehicle:74 No VehicleCapacity (= maximum number of passengers) set in Vehicle. Using default value of 4.  This is only a problem if you need vehicles with different capacities, e.g. for minibuses.
2016-04-04 10:49:57,712  WARN QVehicle:74 No VehicleCapacity (= maximum number of passengers) set in Vehicle. Using default value of 4.  This is only a problem if you need vehicles with different capacities, e.g. for minibuses.
2016-04-04 10:49:57,712  WARN QVehicle:74 No VehicleCapacity (= maximum number of passengers) set in Vehicle. Using default value of 4.  This is only a problem if you need vehicles with different capacities, e.g. for minibuses.
2016-04-04 10:49:57,712  WARN QVehicle:74 No VehicleCapacity (= maximum number of passengers) set in Vehicle. Using default value of 4.  This is only a problem if you need vehicles with different capacities, e.g. for minibuses.
2016-04-04 10:49:57,712  WARN QVehicle:74 No VehicleCapacity (= maximum number of passengers) set in Vehicle. Using default value of 4.  This is only a problem if you need vehicles with different capacities, e.g. for minibuses.
2016-04-04 10:49:57,712  WARN QVehicle:74 No VehicleCapacity (= maximum number of passengers) set in Vehicle. Using default value of 4.  This is only a problem if you need vehicles with different capacities, e.g. for minibuses.
2016-04-04 10:49:57,712  WARN QVehicle:74 No VehicleCapacity (= maximum number of passengers) set in Vehicle. Using default value of 4.  This is only a problem if you need vehicles with different capacities, e.g. for minibuses.
2016-04-04 10:49:57,712  WARN QVehicle:74 No VehicleCapacity (= maximum number of passengers) set in Vehicle. Using default value of 4.  This is only a problem if you need vehicles with different capacities, e.g. for minibuses.
2016-04-04 10:49:57,712  WARN QVehicle:74 No VehicleCapacity (= maximum number of passengers) set in Vehicle. Using default value of 4.  This is only a problem if you need vehicles with different capacities, e.g. for minibuses.
2016-04-04 10:49:57,712  WARN QVehicle:74 No VehicleCapacity (= maximum number of passengers) set in Vehicle. Using default value of 4.  This is only a problem if you need vehicles with different capacities, e.g. for minibuses.
2016-04-04 10:49:57,712  WARN QVehicle:79  Future occurences of this logging statement are suppressed.
2016-04-04 10:49:57,714  INFO QNetsimEngine:534 Assigned 15 nodes and 23 links to QSimEngineRunner #0
2016-04-04 10:49:57,721  INFO EventsManagerImpl:134  event # 1
2016-04-04 10:49:57,722  INFO QNetsimEngine:364 SIMULATION (QNetsimEngine) AT 05:58:30 : #links=1 #nodes=1
2016-04-04 10:49:57,722  INFO QSim:426 SIMULATION (NEW QSim) AT 05:58:30 : #Veh=100 lost=0 simT=0.0s realT=0s; (s/r): 0.0
2016-04-04 10:49:57,722  INFO Gbl:52 used RAM: 13743312B = 13421kB = 13MB  free: 243682096B = 232MB  total: 257425408B = 245MB
2016-04-04 10:49:57,722  INFO EventsManagerImpl:134  event # 2
2016-04-04 10:49:57,723  INFO EventsManagerImpl:134  event # 4
2016-04-04 10:49:57,724  INFO EventsManagerImpl:134  event # 8
2016-04-04 10:49:57,725  INFO EventsManagerImpl:134  event # 16
2016-04-04 10:49:57,726  INFO EventsManagerImpl:134  event # 32
2016-04-04 10:49:57,727  INFO EventsManagerImpl:134  event # 64
2016-04-04 10:49:57,728  INFO EventsManagerImpl:134  event # 128
2016-04-04 10:49:57,729  INFO QNetsimEngine:364 SIMULATION (QNetsimEngine) AT 06:00:00 : #links=2 #nodes=1
2016-04-04 10:49:57,729  INFO QSim:426 SIMULATION (NEW QSim) AT 06:00:00 : #Veh=100 lost=0 simT=90.0s realT=0s; (s/r): Infinity
2016-04-04 10:49:57,729  INFO Gbl:52 used RAM: 13743312B = 13421kB = 13MB  free: 243682096B = 232MB  total: 257425408B = 245MB
2016-04-04 10:49:57,730  INFO EventsManagerImpl:134  event # 256
2016-04-04 10:49:57,734  INFO EventsManagerImpl:134  event # 512
2016-04-04 10:49:57,761  INFO EventsManagerImpl:134  event # 1024
2016-04-04 10:49:57,777  WARN CharyparNagelActivityScoring:212 encountering duration < zeroUtilityDuration; the logic for this was changed around mid-nov 2013.
2016-04-04 10:49:57,777  WARN CharyparNagelActivityScoring:213 your final score thus will be different from earlier runs; set usingOldScoringBelowZeroUtilityDuration to true if you absolutely need the old version.  See https://matsim.atlassian.net/browse/MATSIM-191.
2016-04-04 10:49:57,777  WARN CharyparNagelActivityScoring:215  This message given only once.
2016-04-04 10:49:57,802  INFO EventsManagerImpl:134  event # 2048
2016-04-04 10:49:57,804  INFO QNetsimEngine:364 SIMULATION (QNetsimEngine) AT 07:00:00 : #links=6 #nodes=0
2016-04-04 10:49:57,805  INFO QSim:426 SIMULATION (NEW QSim) AT 07:00:00 : #Veh=100 lost=0 simT=3690.0s realT=0s; (s/r): Infinity
2016-04-04 10:49:57,805  INFO Gbl:52 used RAM: 16307352B = 15925kB = 15MB  free: 241118056B = 229MB  total: 257425408B = 245MB
2016-04-04 10:49:57,846  INFO QNetsimEngine:364 SIMULATION (QNetsimEngine) AT 08:00:00 : #links=6 #nodes=0
2016-04-04 10:49:57,846  INFO QSim:426 SIMULATION (NEW QSim) AT 08:00:00 : #Veh=4 lost=0 simT=7290.0s realT=0s; (s/r): Infinity
2016-04-04 10:49:57,846  INFO Gbl:52 used RAM: 18200320B = 17773kB = 17MB  free: 239225088B = 228MB  total: 257425408B = 245MB
2016-04-04 10:49:57,878  INFO QNetsimEngine:364 SIMULATION (QNetsimEngine) AT 09:00:00 : #links=6 #nodes=0
2016-04-04 10:49:57,878  INFO QSim:426 SIMULATION (NEW QSim) AT 09:00:00 : #Veh=3 lost=0 simT=10890.0s realT=0s; (s/r): Infinity
2016-04-04 10:49:57,878  INFO Gbl:52 used RAM: 20213664B = 19739kB = 19MB  free: 237211744B = 226MB  total: 257425408B = 245MB
2016-04-04 10:49:57,910  INFO QNetsimEngine:364 SIMULATION (QNetsimEngine) AT 10:00:00 : #links=6 #nodes=0
2016-04-04 10:49:57,910  INFO QSim:426 SIMULATION (NEW QSim) AT 10:00:00 : #Veh=1 lost=0 simT=14490.0s realT=0s; (s/r): Infinity
2016-04-04 10:49:57,910  INFO Gbl:52 used RAM: 21435520B = 20933kB = 20MB  free: 235989888B = 225MB  total: 257425408B = 245MB
2016-04-04 10:49:57,942  INFO QNetsimEngine:364 SIMULATION (QNetsimEngine) AT 11:00:00 : #links=6 #nodes=0
2016-04-04 10:49:57,942  INFO QSim:426 SIMULATION (NEW QSim) AT 11:00:00 : #Veh=1 lost=0 simT=18090.0s realT=0s; (s/r): Infinity
2016-04-04 10:49:57,942  INFO Gbl:52 used RAM: 22106640B = 21588kB = 21MB  free: 235318768B = 224MB  total: 257425408B = 245MB
2016-04-04 10:49:57,975  INFO QNetsimEngine:364 SIMULATION (QNetsimEngine) AT 12:00:00 : #links=6 #nodes=0
2016-04-04 10:49:57,975  INFO QSim:426 SIMULATION (NEW QSim) AT 12:00:00 : #Veh=1 lost=0 simT=21690.0s realT=0s; (s/r): Infinity
2016-04-04 10:49:57,975  INFO Gbl:52 used RAM: 23999616B = 23437kB = 22MB  free: 233425792B = 222MB  total: 257425408B = 245MB
2016-04-04 10:49:58,007  INFO QNetsimEngine:364 SIMULATION (QNetsimEngine) AT 13:00:00 : #links=6 #nodes=0
2016-04-04 10:49:58,007  INFO QSim:426 SIMULATION (NEW QSim) AT 13:00:00 : #Veh=1 lost=0 simT=25290.0s realT=0s; (s/r): Infinity
2016-04-04 10:49:58,007  INFO Gbl:52 used RAM: 25221472B = 24630kB = 24MB  free: 232203936B = 221MB  total: 257425408B = 245MB
2016-04-04 10:49:58,023  INFO Gbl:185 Thread performance: Thread=QNetsimEngineRunner_0  cpu-time=0.0780005sec
2016-04-04 10:49:58,023  INFO AbstractController$8:329 ### ITERATION 0 fires after mobsim event
2016-04-04 10:49:58,023  INFO ControlerListenerManager:244 calling notifyAfterMobsim on org.matsim.core.controler.corelisteners.EventsHandlingImpl
2016-04-04 10:49:58,023  INFO ControlerListenerManager:249 calling notifyAfterMobsim on org.matsim.analysis.LegTimesControlerListener
2016-04-04 10:49:58,023  INFO Gbl:185 Thread performance: Thread=class org.matsim.core.events.SimStepParallelEventsManagerImpl$ProcessEventsRunnable0  cpu-time=0.0780005sec
2016-04-04 10:49:58,024  INFO LegTimesControlerListener:50 [0] average trip (probably: leg) duration is: 1703 seconds = 00:28:23
2016-04-04 10:49:58,024  INFO ControlerListenerManager:252 [it.0] all ControlerAfterMobsimListeners called.
2016-04-04 10:49:58,024  INFO AbstractController$4:266 ### ITERATION 0 fires scoring event
2016-04-04 10:49:58,024  INFO ControlerListenerManager:184 calling notifyScoring on org.matsim.core.controler.corelisteners.PlansScoringImpl
2016-04-04 10:49:58,025  INFO EventsToScore:178 it: 0 msaStart: null
2016-04-04 10:49:58,025  INFO ControlerListenerManager:195 [it.0] all ControlerScoringListeners called.
2016-04-04 10:49:58,026  INFO AbstractController$5:274 ### ITERATION 0 fires iteration end event
2016-04-04 10:49:58,026  INFO ControlerListenerManager:161 calling notifyIterationEnds on org.matsim.core.controler.corelisteners.EventsHandlingImpl
2016-04-04 10:49:58,026  INFO EventsManagerImpl:161 removing Event-Handler: org.matsim.core.events.algorithms.EventWriterXML
2016-04-04 10:49:58,026  INFO EventsManagerImpl:161 removing Event-Handler: org.matsim.core.events.algorithms.EventWriterXML
2016-04-04 10:49:58,026  INFO ControlerListenerManager:161 calling notifyIterationEnds on org.matsim.core.controler.corelisteners.PlansScoringImpl
2016-04-04 10:49:58,027  INFO EventsManagerImpl:161 removing Event-Handler: org.matsim.core.scoring.EventsToScore
2016-04-04 10:49:58,027  INFO EventsManagerImpl:161 removing Event-Handler: org.matsim.core.scoring.EventsToScore
2016-04-04 10:49:58,027  INFO TravelDistanceStats:122 [TravelDistanceStats] using 2 thread(s).
2016-04-04 10:49:58,027  INFO TravelDistanceStats:135 [TravelDistanceStats] all threads finished.
2016-04-04 10:49:58,028  INFO TravelDistanceStats:155 -- average of the average leg distance per plan (executed plans only): 34999.5
2016-04-04 10:49:58,028  INFO TravelDistanceStats:156 (TravelDistanceStats takes an average over all legs where the simulation reports travelled distances. These are car legs, pt legs,
2016-04-04 10:49:58,028  INFO TravelDistanceStats:157 (and teleported legs whose route contains a distance.)
2016-04-04 10:49:58,028  INFO ControlerListenerManager:168 calling notifyIterationEnds on org.matsim.counts.CountsControlerListener
2016-04-04 10:49:58,028  INFO ControlerListenerManager:168 calling notifyIterationEnds on org.matsim.analysis.ScoreStatsControlerListener
2016-04-04 10:49:58,028  INFO ScoreStatsControlerListener:187 -- avg. score of the executed plan of each agent: 53.178059402365825
2016-04-04 10:49:58,028  INFO ScoreStatsControlerListener:188 -- avg. score of the worst plan of each agent: 53.178059402365825
2016-04-04 10:49:58,028  INFO ScoreStatsControlerListener:189 -- avg. of the avg. plan score per agent: 53.178059402365825
2016-04-04 10:49:58,028  INFO ScoreStatsControlerListener:190 -- avg. score of the best plan of each agent: 53.178059402365825
2016-04-04 10:49:58,028  INFO ControlerListenerManager:168 calling notifyIterationEnds on org.matsim.core.controler.corelisteners.LegHistogramListener
2016-04-04 10:49:58,053  INFO LegHistogramListener:81 number of legs:	200	100%
2016-04-04 10:49:58,054  INFO LegHistogramListener:88 number of car legs:	200	100.0%
2016-04-04 10:49:58,054  INFO LegHistogramListener:90 (car legs include legs by pt vehicles)
2016-04-04 10:49:58,459  INFO ControlerListenerManager:168 calling notifyIterationEnds on org.matsim.core.controler.corelisteners.LinkStatsControlerListener
2016-04-04 10:49:58,459  INFO ControlerListenerManager:172 [it.0] all ControlerIterationEndsListeners called.
2016-04-04 10:49:58,554  INFO AbstractController:284 ### ITERATION 0 ENDS
2016-04-04 10:49:58,554  INFO AbstractController:285 ###################################################
2016-04-04 10:49:58,554  INFO AbstractController:240 ###################################################
2016-04-04 10:49:58,554  INFO AbstractController:241 ### ITERATION 1 BEGINS
2016-04-04 10:49:58,555  INFO ControlerListenerManager:141 calling notifyIterationStarts on org.matsim.core.controler.corelisteners.PlansScoringImpl
2016-04-04 10:49:58,555  INFO EventsManagerImpl:144 adding Event-Handler: org.matsim.core.scoring.EventsToScore
2016-04-04 10:49:58,555  INFO EventsManagerImpl:148   org.matsim.core.events.handler.BasicEventHandler
2016-04-04 10:49:58,555  INFO EventsManagerImpl:207     > org.matsim.api.core.v01.events.Event
2016-04-04 10:49:58,555  INFO EventsManagerImpl:156 
2016-04-04 10:49:58,555  INFO EventsManagerImpl:144 adding Event-Handler: org.matsim.core.scoring.EventsToScore
2016-04-04 10:49:58,555  INFO EventsManagerImpl:148   org.matsim.core.events.handler.BasicEventHandler
2016-04-04 10:49:58,555  INFO EventsManagerImpl:207     > org.matsim.api.core.v01.events.Event
2016-04-04 10:49:58,555  INFO EventsManagerImpl:156 
2016-04-04 10:49:58,555  INFO ControlerListenerManager:146 calling notifyIterationStarts on org.matsim.core.controler.corelisteners.LegHistogramListener
2016-04-04 10:49:58,556  INFO ControlerListenerManager:146 calling notifyIterationStarts on org.matsim.core.controler.corelisteners.LinkStatsControlerListener
2016-04-04 10:49:58,556  INFO ControlerListenerManager:149 [it.1] all ControlerIterationStartsListeners called.
2016-04-04 10:49:58,556  INFO ControlerListenerManager:206 calling notifyReplanning on org.matsim.core.controler.corelisteners.PlansReplanningImpl
2016-04-04 10:49:58,558  INFO PopulationImpl:173  person # 1
2016-04-04 10:49:58,558  INFO PopulationImpl:173  person # 2
2016-04-04 10:49:58,558  INFO PopulationImpl:173  person # 4
2016-04-04 10:49:58,558  INFO PopulationImpl:173  person # 8
2016-04-04 10:49:58,559  INFO GenericPlanStrategyImpl:125 Plan-Strategy finished, 89 plans handled. Strategy: BestPlanSelector
2016-04-04 10:49:58,559  INFO Counter:51 [PopulationWriter] dumped person # 1
2016-04-04 10:49:58,559  INFO Counter:51 [PopulationWriter] dumped person # 2
2016-04-04 10:49:58,560  INFO Counter:51 [PopulationWriter] dumped person # 4
2016-04-04 10:49:58,560  INFO Counter:51 [PopulationWriter] dumped person # 8
2016-04-04 10:49:58,560  INFO PopulationWriter:95 Population written to: ./output/externalReplanning/tmp/ext1_plans.in.xml
2016-04-04 10:49:58,560  INFO Counter:57 [PopulationWriter] dumped person # 11
2016-04-04 10:49:58,560  INFO Config:379 module "scenario" added.
2016-04-04 10:49:58,565  INFO ExeRunner$ExternalExecutor:199 Starting external exe with command: java -jar ./examples/external/replanning.jar ./output/externalReplanning/tmp/ext1_config.xml
2016-04-04 10:49:58,565  INFO ExeRunner$ExternalExecutor:200 Output of the externel exe is written to: ./output/externalReplanning/ITERS/it.1/1.ext1_stdout.log
2016-04-04 10:49:58,584  INFO ExeRunner$ExternalExecutor:206 external exe returned 1
2016-04-04 10:49:58,585 ERROR AbstractController:175 Getting uncaught Exception in Thread main
java.lang.RuntimeException: External Replanning exited with error.
	at org.matsim.core.replanning.modules.ExternalModule.finishReplanning(ExternalModule.java:139)
	at org.matsim.core.replanning.GenericPlanStrategyImpl.finish(GenericPlanStrategyImpl.java:114)
	at org.matsim.core.replanning.GenericStrategyManager.run(GenericStrategyManager.java:216)
	at org.matsim.core.replanning.StrategyManager.run(StrategyManager.java:145)
	at org.matsim.core.replanning.StrategyManager.run(StrategyManager.java:131)
	at org.matsim.core.controler.corelisteners.PlansReplanningImpl.notifyReplanning(PlansReplanningImpl.java:53)
	at org.matsim.core.controler.ControlerListenerManager.fireControlerReplanningEvent(ControlerListenerManager.java:207)
	at org.matsim.core.controler.AbstractController$3.run(AbstractController.java:256)
	at org.matsim.core.controler.AbstractController.iterationStep(AbstractController.java:338)
	at org.matsim.core.controler.AbstractController.iteration(AbstractController.java:253)
	at org.matsim.core.controler.AbstractController.doIterations(AbstractController.java:198)
	at org.matsim.core.controler.AbstractController.run(AbstractController.java:139)
	at org.matsim.core.controler.Controler.run(Controler.java:215)
	at org.matsim.run.Controler.run(Controler.java:56)
	at org.matsim.run.Controler.main(Controler.java:60)
2016-04-04 10:49:58,585  INFO AbstractController:203 S H U T D O W N   ---   start shutdown.
2016-04-04 10:49:58,585 ERROR AbstractController:205 ERROR --- This is an unexpected shutdown!
2016-04-04 10:49:58,586 ERROR AbstractController:208 Shutdown possibly caused by the following Exception:
java.lang.RuntimeException: External Replanning exited with error.
	at org.matsim.core.replanning.modules.ExternalModule.finishReplanning(ExternalModule.java:139)
	at org.matsim.core.replanning.GenericPlanStrategyImpl.finish(GenericPlanStrategyImpl.java:114)
	at org.matsim.core.replanning.GenericStrategyManager.run(GenericStrategyManager.java:216)
	at org.matsim.core.replanning.StrategyManager.run(StrategyManager.java:145)
	at org.matsim.core.replanning.StrategyManager.run(StrategyManager.java:131)
	at org.matsim.core.controler.corelisteners.PlansReplanningImpl.notifyReplanning(PlansReplanningImpl.java:53)
	at org.matsim.core.controler.ControlerListenerManager.fireControlerReplanningEvent(ControlerListenerManager.java:207)
	at org.matsim.core.controler.AbstractController$3.run(AbstractController.java:256)
	at org.matsim.core.controler.AbstractController.iterationStep(AbstractController.java:338)
	at org.matsim.core.controler.AbstractController.iteration(AbstractController.java:253)
	at org.matsim.core.controler.AbstractController.doIterations(AbstractController.java:198)
	at org.matsim.core.controler.AbstractController.run(AbstractController.java:139)
	at org.matsim.core.controler.Controler.run(Controler.java:215)
	at org.matsim.run.Controler.run(Controler.java:56)
	at org.matsim.run.Controler.main(Controler.java:60)
2016-04-04 10:49:58,586  INFO ControlerListenerManager:122 calling notifyShutdown on org.matsim.core.controler.corelisteners.EventsHandlingImpl
2016-04-04 10:49:58,586  INFO ControlerListenerManager:122 calling notifyShutdown on org.matsim.core.controler.corelisteners.PlansScoringImpl
2016-04-04 10:49:58,586  INFO ControlerListenerManager:122 calling notifyShutdown on org.matsim.core.controler.corelisteners.DumpDataAtEndImpl
2016-04-04 10:49:58,586  INFO Counter:51 [PopulationWriter] dumped person # 1
2016-04-04 10:49:58,587  INFO Counter:51 [PopulationWriter] dumped person # 2
2016-04-04 10:49:58,587  INFO Counter:51 [PopulationWriter] dumped person # 4
2016-04-04 10:49:58,587  INFO Counter:51 [PopulationWriter] dumped person # 8
2016-04-04 10:49:58,587  INFO Counter:51 [PopulationWriter] dumped person # 16
2016-04-04 10:49:58,588  INFO Counter:51 [PopulationWriter] dumped person # 32
2016-04-04 10:49:58,589  INFO Counter:51 [PopulationWriter] dumped person # 64
2016-04-04 10:49:58,590  INFO PopulationWriter:95 Population written to: ./output/externalReplanning/output_plans.xml.gz
2016-04-04 10:49:58,591  INFO Counter:57 [PopulationWriter] dumped person # 100
2016-04-04 10:49:58,593  INFO NetworkWriter:46 Writing network to file: ./output/externalReplanning/output_network.xml.gz...
2016-04-04 10:49:58,594  INFO NetworkWriter:49 done.
2016-04-04 10:49:58,598  INFO ControlerListenerManager:127 calling notifyShutdown on org.matsim.analysis.ScoreStatsControlerListener
2016-04-04 10:49:58,598  INFO ControlerListenerManager:130 all ControlerShutdownListeners called.
2016-04-04 10:49:58,598 ERROR AbstractController:223 ERROR --- MATSim unexpectedly terminated. Please check the output or the logfile with warnings and errors for hints.
2016-04-04 10:49:58,598 ERROR AbstractController:224 ERROR --- results should not be used for further analysis.
2016-04-04 10:49:58,598  INFO AbstractController:226 S H U T D O W N   ---   shutdown completed.
2016-04-04 10:49:58,598 ERROR AbstractController:228 ERROR --- This was an unexpected shutdown! See the log file for a possible reason.
2016-04-04 10:49:58,599  INFO OutputDirectoryLogging:168 closing the logfile, i.e. messages sent to the logger after this message are not written to the logfile.
